4QY3_3G1_A_302


 19 20  0  0  0  0  0  0  0  0999 V2000
    5.7548   -5.3835    5.3481 C   0  0  0  0  0  0  0  0  0  0  0  0
    4.7368   -4.5777    5.8717 C   0  0  0  0  0  0  0  0  0  0  0  0
    3.9383   -5.0940    6.9000 C   0  0  0  0  0  0  0  0  0  0  0  0
    4.1440   -6.3724    7.3791 C   0  0  0  0  0  0  0  0  0  0  0  0
    5.9528   -6.6698    5.8359 C   0  0  0  0  0  0  0  0  0  0  0  0
    5.1408   -7.1527    6.8557 C   0  0  0  0  0  0  0  0  0  0  0  0
    5.1882   -2.2928    5.9723 O   0  0  0  0  0  0  0  0  0  0  0  0
    4.5584   -3.1876    5.3690 C   0  0  0  0  0  0  0  0  0  0  0  0
    3.7908   -3.0343    4.3947 O   0  0  0  0  0  0  0  0  0  0  0  0
    3.3647   -3.7763    4.0128 H   0  0  0  0  0  0  0  0  0  0  0  0
    6.8501   -4.8783    3.9983 S   0  0  0  0  0  0  0  0  0  0  0  0
    8.0916   -5.6820    4.1905 O   0  0  0  0  0  0  0  0  0  0  0  0
    5.8846   -5.5825    2.5861 C   0  0  0  0  0  0  0  0  0  0  0  0
    7.2974   -5.6419    0.5144 C   0  0  0  0  0  0  0  0  0  0  0  0
    7.9772   -6.3375   -0.4649 C   0  0  0  0  0  0  0  0  0  0  0  0
    8.0642   -7.7146   -0.4105 C   0  0  0  0  0  0  0  0  0  0  0  0
    7.4686   -8.3895    0.6363 C   0  0  0  0  0  0  0  0  0  0  0  0
    6.7863   -7.7009    1.6202 C   0  0  0  0  0  0  0  0  0  0  0  0
    6.6883   -6.3150    1.5672 C   0  0  0  0  0  0  0  0  0  0  0  0
 17 16  2  0  0  0
 17 18  1  0  0  0
 16 15  1  0  0  0
 18 19  2  0  0  0
 15 14  2  0  0  0
 19 14  1  0  0  0
 19 13  1  0  0  0
 13 11  1  0  0  0
 12 11  2  0  0  0
 11  1  1  0  0  0
  5  1  2  0  0  0
  5  6  1  0  0  0
  1  2  1  0  0  0
  6  4  2  0  0  0
  7  8  2  0  0  0
  2  8  1  0  0  0
  2  3  2  0  0  0
  8  9  1  0  0  0
  4  3  1  0  0  0
  9 10  1  0  0  0
M  END
> <minimizedAffinity>
-7.29311

$$$$
4QY3_3G1_A_302


 19 20  0  0  0  0  0  0  0  0999 V2000
    5.3965   -6.4132    5.5129 C   0  0  0  0  0  0  0  0  0  0  0  0
    5.2755   -5.0390    5.2751 C   0  0  0  0  0  0  0  0  0  0  0  0
    5.3215   -4.5834    3.9515 C   0  0  0  0  0  0  0  0  0  0  0  0
    5.4927   -5.4688    2.9060 C   0  0  0  0  0  0  0  0  0  0  0  0
    5.5704   -7.2962    4.4539 C   0  0  0  0  0  0  0  0  0  0  0  0
    5.6141   -6.8108    3.1520 C   0  0  0  0  0  0  0  0  0  0  0  0
    6.0688   -3.5790    6.9103 O   0  0  0  0  0  0  0  0  0  0  0  0
    5.0506   -4.1059    6.4135 C   0  0  0  0  0  0  0  0  0  0  0  0
    3.8674   -3.9360    6.7781 O   0  0  0  0  0  0  0  0  0  0  0  0
    3.1721   -4.3817    6.3354 H   0  0  0  0  0  0  0  0  0  0  0  0
    5.3899   -7.1576    7.1631 S   0  0  0  0  0  0  0  0  0  0  0  0
    4.0104   -6.9284    7.6816 O   0  0  0  0  0  0  0  0  0  0  0  0
    5.5628   -8.9302    6.6628 C   0  0  0  0  0  0  0  0  0  0  0  0
    8.0377   -8.6409    6.9500 C   0  0  0  0  0  0  0  0  0  0  0  0
    9.3246   -9.1384    6.9133 C   0  0  0  0  0  0  0  0  0  0  0  0
    9.5500  -10.4721    6.6346 C   0  0  0  0  0  0  0  0  0  0  0  0
    8.4748  -11.3050    6.3978 C   0  0  0  0  0  0  0  0  0  0  0  0
    7.1839  -10.8150    6.4325 C   0  0  0  0  0  0  0  0  0  0  0  0
    6.9504   -9.4717    6.7048 C   0  0  0  0  0  0  0  0  0  0  0  0
 17 16  2  0  0  0
 17 18  1  0  0  0
 16 15  1  0  0  0
 18 19  2  0  0  0
 15 14  2  0  0  0
 19 14  1  0  0  0
 19 13  1  0  0  0
 13 11  1  0  0  0
 12 11  2  0  0  0
 11  1  1  0  0  0
  5  1  2  0  0  0
  5  6  1  0  0  0
  1  2  1  0  0  0
  6  4  2  0  0  0
  7  8  2  0  0  0
  2  8  1  0  0  0
  2  3  2  0  0  0
  8  9  1  0  0  0
  4  3  1  0  0  0
  9 10  1  0  0  0
M  END
> <minimizedAffinity>
-6.52267

$$$$
4QY3_3G1_A_302


 19 20  0  0  0  0  0  0  0  0999 V2000
    6.2009   -6.5758    5.8961 C   0  0  0  0  0  0  0  0  0  0  0  0
    5.2300   -5.7399    6.4605 C   0  0  0  0  0  0  0  0  0  0  0  0
    4.2892   -6.3024    7.3323 C   0  0  0  0  0  0  0  0  0  0  0  0
    4.3125   -7.6525    7.6201 C   0  0  0  0  0  0  0  0  0  0  0  0
    6.2149   -7.9340    6.1907 C   0  0  0  0  0  0  0  0  0  0  0  0
    5.2650   -8.4608    7.0582 C   0  0  0  0  0  0  0  0  0  0  0  0
    4.5183   -3.8908    5.2320 O   0  0  0  0  0  0  0  0  0  0  0  0
    5.2478   -4.2799    6.1689 C   0  0  0  0  0  0  0  0  0  0  0  0
    5.9938   -3.5720    6.8790 O   0  0  0  0  0  0  0  0  0  0  0  0
    6.5030   -3.9650    7.5604 H   0  0  0  0  0  0  0  0  0  0  0  0
    7.4642   -6.0124    4.7284 S   0  0  0  0  0  0  0  0  0  0  0  0
    8.3829   -5.1614    5.5384 O   0  0  0  0  0  0  0  0  0  0  0  0
    8.2779   -7.6412    4.4007 C   0  0  0  0  0  0  0  0  0  0  0  0
    8.5987   -9.4260    2.6679 C   0  0  0  0  0  0  0  0  0  0  0  0
    8.4020   -9.9244    1.3959 C   0  0  0  0  0  0  0  0  0  0  0  0
    7.6123   -9.2408    0.4925 C   0  0  0  0  0  0  0  0  0  0  0  0
    7.0166   -8.0557    0.8755 C   0  0  0  0  0  0  0  0  0  0  0  0
    7.2086   -7.5501    2.1464 C   0  0  0  0  0  0  0  0  0  0  0  0
    8.0088   -8.2293    3.0582 C   0  0  0  0  0  0  0  0  0  0  0  0
 17 16  2  0  0  0
 17 18  1  0  0  0
 16 15  1  0  0  0
 18 19  2  0  0  0
 15 14  2  0  0  0
 19 14  1  0  0  0
 19 13  1  0  0  0
 13 11  1  0  0  0
 12 11  2  0  0  0
 11  1  1  0  0  0
  5  1  2  0  0  0
  5  6  1  0  0  0
  1  2  1  0  0  0
  6  4  2  0  0  0
  7  8  2  0  0  0
  2  8  1  0  0  0
  2  3  2  0  0  0
  8  9  1  0  0  0
  4  3  1  0  0  0
  9 10  1  0  0  0
M  END
> <minimizedAffinity>
-6.49409

$$$$
4QY3_3G1_A_302


 19 20  0  0  0  0  0  0  0  0999 V2000
    6.1660  -10.0187    6.6509 C   0  0  0  0  0  0  0  0  0  0  0  0
    5.7078  -11.2822    7.0423 C   0  0  0  0  0  0  0  0  0  0  0  0
    6.6116  -12.3520    7.0366 C   0  0  0  0  0  0  0  0  0  0  0  0
    7.9221  -12.1665    6.6436 C   0  0  0  0  0  0  0  0  0  0  0  0
    7.4866   -9.8425    6.2553 C   0  0  0  0  0  0  0  0  0  0  0  0
    8.3574  -10.9261    6.2587 C   0  0  0  0  0  0  0  0  0  0  0  0
    3.5114  -11.9802    6.6902 O   0  0  0  0  0  0  0  0  0  0  0  0
    4.3015  -11.4520    7.5014 C   0  0  0  0  0  0  0  0  0  0  0  0
    4.0310  -11.0464    8.6521 O   0  0  0  0  0  0  0  0  0  0  0  0
    4.7010  -10.6628    9.1832 H   0  0  0  0  0  0  0  0  0  0  0  0
    5.1192   -8.5439    6.5722 S   0  0  0  0  0  0  0  0  0  0  0  0
    4.8615   -8.1801    7.9954 O   0  0  0  0  0  0  0  0  0  0  0  0
    6.3580   -7.3684    5.8609 C   0  0  0  0  0  0  0  0  0  0  0  0
    5.1739   -5.2021    6.3044 C   0  0  0  0  0  0  0  0  0  0  0  0
    4.6030   -4.0251    5.8643 C   0  0  0  0  0  0  0  0  0  0  0  0
    4.6569   -3.6796    4.5283 C   0  0  0  0  0  0  0  0  0  0  0  0
    5.2922   -4.5209    3.6369 C   0  0  0  0  0  0  0  0  0  0  0  0
    5.8659   -5.7007    4.0691 C   0  0  0  0  0  0  0  0  0  0  0  0
    5.8083   -6.0582    5.4115 C   0  0  0  0  0  0  0  0  0  0  0  0
 17 16  2  0  0  0
 17 18  1  0  0  0
 16 15  1  0  0  0
 18 19  2  0  0  0
 15 14  2  0  0  0
 19 14  1  0  0  0
 19 13  1  0  0  0
 13 11  1  0  0  0
 12 11  2  0  0  0
 11  1  1  0  0  0
  5  1  2  0  0  0
  5  6  1  0  0  0
  1  2  1  0  0  0
  6  4  2  0  0  0
  7  8  2  0  0  0
  2  8  1  0  0  0
  2  3  2  0  0  0
  8  9  1  0  0  0
  4  3  1  0  0  0
  9 10  1  0  0  0
M  END
> <minimizedAffinity>
-6.20907

$$$$
4QY3_3G1_A_302


 19 20  0  0  0  0  0  0  0  0999 V2000
    5.6991   -6.4441    4.8901 C   0  0  0  0  0  0  0  0  0  0  0  0
    5.2315   -6.4294    6.2096 C   0  0  0  0  0  0  0  0  0  0  0  0
    4.5157   -5.3100    6.6524 C   0  0  0  0  0  0  0  0  0  0  0  0
    4.2856   -4.2409    5.8096 C   0  0  0  0  0  0  0  0  0  0  0  0
    5.4638   -5.3622    4.0501 C   0  0  0  0  0  0  0  0  0  0  0  0
    4.7519   -4.2653    4.5219 C   0  0  0  0  0  0  0  0  0  0  0  0
    4.8616   -8.6620    6.7697 O   0  0  0  0  0  0  0  0  0  0  0  0
    5.4552   -7.6099    7.0891 C   0  0  0  0  0  0  0  0  0  0  0  0
    6.2091   -7.4458    8.0723 O   0  0  0  0  0  0  0  0  0  0  0  0
    6.6074   -6.6112    8.2232 H   0  0  0  0  0  0  0  0  0  0  0  0
    6.6656   -7.7976    4.1755 S   0  0  0  0  0  0  0  0  0  0  0  0
    6.5360   -7.6239    2.6999 O   0  0  0  0  0  0  0  0  0  0  0  0
    8.3480   -7.2405    4.7061 C   0  0  0  0  0  0  0  0  0  0  0  0
    8.5991   -9.3535    6.0342 C   0  0  0  0  0  0  0  0  0  0  0  0
    9.1179  -10.0532    7.1048 C   0  0  0  0  0  0  0  0  0  0  0  0
   10.0088   -9.4476    7.9690 C   0  0  0  0  0  0  0  0  0  0  0  0
   10.3798   -8.1362    7.7490 C   0  0  0  0  0  0  0  0  0  0  0  0
    9.8651   -7.4289    6.6801 C   0  0  0  0  0  0  0  0  0  0  0  0
    8.9618   -8.0302    5.8108 C   0  0  0  0  0  0  0  0  0  0  0  0
 17 16  2  0  0  0
 17 18  1  0  0  0
 16 15  1  0  0  0
 18 19  2  0  0  0
 15 14  2  0  0  0
 19 14  1  0  0  0
 19 13  1  0  0  0
 13 11  1  0  0  0
 12 11  2  0  0  0
 11  1  1  0  0  0
  5  1  2  0  0  0
  5  6  1  0  0  0
  1  2  1  0  0  0
  6  4  2  0  0  0
  7  8  2  0  0  0
  2  8  1  0  0  0
  2  3  2  0  0  0
  8  9  1  0  0  0
  4  3  1  0  0  0
  9 10  1  0  0  0
M  END
> <minimizedAffinity>
-6.11409

$$$$
4QY3_3G1_A_302


 19 20  0  0  0  0  0  0  0  0999 V2000
    5.5092   -5.6779    5.9808 C   0  0  0  0  0  0  0  0  0  0  0  0
    4.8030   -4.5028    6.2640 C   0  0  0  0  0  0  0  0  0  0  0  0
    3.7683   -4.5558    7.2064 C   0  0  0  0  0  0  0  0  0  0  0  0
    3.4455   -5.7426    7.8339 C   0  0  0  0  0  0  0  0  0  0  0  0
    5.1756   -6.8678    6.6165 C   0  0  0  0  0  0  0  0  0  0  0  0
    4.1413   -6.8866    7.5451 C   0  0  0  0  0  0  0  0  0  0  0  0
    4.6890   -2.9993    4.4859 O   0  0  0  0  0  0  0  0  0  0  0  0
    5.1940   -3.2254    5.6063 C   0  0  0  0  0  0  0  0  0  0  0  0
    5.9966   -2.4948    6.2258 O   0  0  0  0  0  0  0  0  0  0  0  0
    6.3177   -2.7583    7.0657 H   0  0  0  0  0  0  0  0  0  0  0  0
    6.8487   -5.7843    4.7677 S   0  0  0  0  0  0  0  0  0  0  0  0
    8.0792   -6.0254    5.5753 O   0  0  0  0  0  0  0  0  0  0  0  0
    6.3453   -7.3624    3.9440 C   0  0  0  0  0  0  0  0  0  0  0  0
    7.3759   -9.3053    5.1501 C   0  0  0  0  0  0  0  0  0  0  0  0
    8.3429  -10.2839    5.2600 C   0  0  0  0  0  0  0  0  0  0  0  0
    9.2826  -10.4523    4.2621 C   0  0  0  0  0  0  0  0  0  0  0  0
    9.2426   -9.6352    3.1501 C   0  0  0  0  0  0  0  0  0  0  0  0
    8.2783   -8.6533    3.0325 C   0  0  0  0  0  0  0  0  0  0  0  0
    7.3341   -8.4734    4.0371 C   0  0  0  0  0  0  0  0  0  0  0  0
 17 16  2  0  0  0
 17 18  1  0  0  0
 16 15  1  0  0  0
 18 19  2  0  0  0
 15 14  2  0  0  0
 19 14  1  0  0  0
 19 13  1  0  0  0
 13 11  1  0  0  0
 12 11  2  0  0  0
 11  1  1  0  0  0
  5  1  2  0  0  0
  5  6  1  0  0  0
  1  2  1  0  0  0
  6  4  2  0  0  0
  7  8  2  0  0  0
  2  8  1  0  0  0
  2  3  2  0  0  0
  8  9  1  0  0  0
  4  3  1  0  0  0
  9 10  1  0  0  0
M  END
> <minimizedAffinity>
-6.09095

$$$$
4QY3_3G1_A_302


 19 20  0  0  0  0  0  0  0  0999 V2000
    5.6882   -6.4111    5.2709 C   0  0  0  0  0  0  0  0  0  0  0  0
    5.5182   -5.0423    5.0320 C   0  0  0  0  0  0  0  0  0  0  0  0
    5.4628   -4.5975    3.7051 C   0  0  0  0  0  0  0  0  0  0  0  0
    5.5836   -5.4878    2.6568 C   0  0  0  0  0  0  0  0  0  0  0  0
    5.8107   -7.2991    4.2089 C   0  0  0  0  0  0  0  0  0  0  0  0
    5.7538   -6.8243    2.9035 C   0  0  0  0  0  0  0  0  0  0  0  0
    6.3961   -3.6295    6.6656 O   0  0  0  0  0  0  0  0  0  0  0  0
    5.3491   -4.1048    6.1764 C   0  0  0  0  0  0  0  0  0  0  0  0
    4.1789   -3.8800    6.5531 O   0  0  0  0  0  0  0  0  0  0  0  0
    3.4589   -4.2899    6.1153 H   0  0  0  0  0  0  0  0  0  0  0  0
    5.8121   -7.1408    6.9230 S   0  0  0  0  0  0  0  0  0  0  0  0
    4.4777   -7.7593    7.1701 O   0  0  0  0  0  0  0  0  0  0  0  0
    7.0366   -8.4738    6.5407 C   0  0  0  0  0  0  0  0  0  0  0  0
    9.2800   -8.7413    7.6302 C   0  0  0  0  0  0  0  0  0  0  0  0
   10.5826   -8.3313    7.8304 C   0  0  0  0  0  0  0  0  0  0  0  0
   11.0984   -7.2695    7.1136 C   0  0  0  0  0  0  0  0  0  0  0  0
   10.2998   -6.6247    6.1904 C   0  0  0  0  0  0  0  0  0  0  0  0
    8.9951   -7.0287    5.9842 C   0  0  0  0  0  0  0  0  0  0  0  0
    8.4673   -8.0919    6.7081 C   0  0  0  0  0  0  0  0  0  0  0  0
 17 16  2  0  0  0
 17 18  1  0  0  0
 16 15  1  0  0  0
 18 19  2  0  0  0
 15 14  2  0  0  0
 19 14  1  0  0  0
 19 13  1  0  0  0
 13 11  1  0  0  0
 12 11  2  0  0  0
 11  1  1  0  0  0
  5  1  2  0  0  0
  5  6  1  0  0  0
  1  2  1  0  0  0
  6  4  2  0  0  0
  7  8  2  0  0  0
  2  8  1  0  0  0
  2  3  2  0  0  0
  8  9  1  0  0  0
  4  3  1  0  0  0
  9 10  1  0  0  0
M  END
> <minimizedAffinity>
-6.04752

$$$$
4QY3_3G1_A_302


 19 20  0  0  0  0  0  0  0  0999 V2000
    5.9492   -5.8352    5.6362 C   0  0  0  0  0  0  0  0  0  0  0  0
    5.1562   -4.9107    6.3263 C   0  0  0  0  0  0  0  0  0  0  0  0
    4.2284   -5.3912    7.2590 C   0  0  0  0  0  0  0  0  0  0  0  0
    4.0920   -6.7465    7.4849 C   0  0  0  0  0  0  0  0  0  0  0  0
    5.8031   -7.1975    5.8693 C   0  0  0  0  0  0  0  0  0  0  0  0
    4.8710   -7.6413    6.8002 C   0  0  0  0  0  0  0  0  0  0  0  0
    6.4294   -2.9647    6.4902 O   0  0  0  0  0  0  0  0  0  0  0  0
    5.3478   -3.4520    6.0975 C   0  0  0  0  0  0  0  0  0  0  0  0
    4.4107   -2.8405    5.5409 O   0  0  0  0  0  0  0  0  0  0  0  0
    3.6371   -3.3025    5.2838 H   0  0  0  0  0  0  0  0  0  0  0  0
    7.1690   -5.3800    4.3784 S   0  0  0  0  0  0  0  0  0  0  0  0
    7.7597   -6.6743    3.9310 O   0  0  0  0  0  0  0  0  0  0  0  0
    6.0042   -4.7643    3.0798 C   0  0  0  0  0  0  0  0  0  0  0  0
    7.3434   -2.6440    3.0341 C   0  0  0  0  0  0  0  0  0  0  0  0
    7.6197   -1.4007    2.5023 C   0  0  0  0  0  0  0  0  0  0  0  0
    6.9302   -0.9456    1.3957 C   0  0  0  0  0  0  0  0  0  0  0  0
    5.9644   -1.7487    0.8227 C   0  0  0  0  0  0  0  0  0  0  0  0
    5.6817   -2.9941    1.3489 C   0  0  0  0  0  0  0  0  0  0  0  0
    6.3668   -3.4550    2.4675 C   0  0  0  0  0  0  0  0  0  0  0  0
 17 16  2  0  0  0
 17 18  1  0  0  0
 16 15  1  0  0  0
 18 19  2  0  0  0
 15 14  2  0  0  0
 19 14  1  0  0  0
 19 13  1  0  0  0
 13 11  1  0  0  0
 12 11  2  0  0  0
 11  1  1  0  0  0
  5  1  2  0  0  0
  5  6  1  0  0  0
  1  2  1  0  0  0
  6  4  2  0  0  0
  7  8  2  0  0  0
  2  8  1  0  0  0
  2  3  2  0  0  0
  8  9  1  0  0  0
  4  3  1  0  0  0
  9 10  1  0  0  0
M  END
> <minimizedAffinity>
-5.83849

$$$$
4QY3_3G1_A_302


 19 20  0  0  0  0  0  0  0  0999 V2000
    5.9592   -6.0303    5.0618 C   0  0  0  0  0  0  0  0  0  0  0  0
    5.2192   -6.2320    6.2329 C   0  0  0  0  0  0  0  0  0  0  0  0
    4.2513   -5.2824    6.5836 C   0  0  0  0  0  0  0  0  0  0  0  0
    4.0393   -4.1674    5.7974 C   0  0  0  0  0  0  0  0  0  0  0  0
    5.7395   -4.9038    4.2780 C   0  0  0  0  0  0  0  0  0  0  0  0
    4.7728   -3.9791    4.6559 C   0  0  0  0  0  0  0  0  0  0  0  0
    4.9952   -8.5286    6.5656 O   0  0  0  0  0  0  0  0  0  0  0  0
    5.4352   -7.4616    7.0445 C   0  0  0  0  0  0  0  0  0  0  0  0
    6.0295   -7.3205    8.1348 O   0  0  0  0  0  0  0  0  0  0  0  0
    6.3208   -6.4713    8.4031 H   0  0  0  0  0  0  0  0  0  0  0  0
    7.2657   -7.1440    4.4876 S   0  0  0  0  0  0  0  0  0  0  0  0
    6.5744   -8.1176    3.5939 O   0  0  0  0  0  0  0  0  0  0  0  0
    8.2148   -5.9395    3.4528 C   0  0  0  0  0  0  0  0  0  0  0  0
    7.4778   -5.7558    1.0623 C   0  0  0  0  0  0  0  0  0  0  0  0
    7.5522   -6.1490   -0.2585 C   0  0  0  0  0  0  0  0  0  0  0  0
    8.4863   -7.0848   -0.6570 C   0  0  0  0  0  0  0  0  0  0  0  0
    9.3493   -7.6202    0.2782 C   0  0  0  0  0  0  0  0  0  0  0  0
    9.2813   -7.2322    1.6021 C   0  0  0  0  0  0  0  0  0  0  0  0
    8.3380   -6.2963    2.0113 C   0  0  0  0  0  0  0  0  0  0  0  0
 17 16  2  0  0  0
 17 18  1  0  0  0
 16 15  1  0  0  0
 18 19  2  0  0  0
 15 14  2  0  0  0
 19 14  1  0  0  0
 19 13  1  0  0  0
 13 11  1  0  0  0
 12 11  2  0  0  0
 11  1  1  0  0  0
  5  1  2  0  0  0
  5  6  1  0  0  0
  1  2  1  0  0  0
  6  4  2  0  0  0
  7  8  2  0  0  0
  2  8  1  0  0  0
  2  3  2  0  0  0
  8  9  1  0  0  0
  4  3  1  0  0  0
  9 10  1  0  0  0
M  END
> <minimizedAffinity>
-5.80932

$$$$
4QY3_3G1_A_302


 19 20  0  0  0  0  0  0  0  0999 V2000
    7.4511   -7.5411    1.8151 C   0  0  0  0  0  0  0  0  0  0  0  0
    7.8530   -8.2253    0.6617 C   0  0  0  0  0  0  0  0  0  0  0  0
    8.0205   -7.4971   -0.5228 C   0  0  0  0  0  0  0  0  0  0  0  0
    7.7843   -6.1371   -0.5546 C   0  0  0  0  0  0  0  0  0  0  0  0
    7.2142   -6.1723    1.7725 C   0  0  0  0  0  0  0  0  0  0  0  0
    7.3874   -5.4797    0.5797 C   0  0  0  0  0  0  0  0  0  0  0  0
    7.2007  -10.4517    0.4321 O   0  0  0  0  0  0  0  0  0  0  0  0
    8.1418   -9.6845    0.7275 C   0  0  0  0  0  0  0  0  0  0  0  0
    9.2945  -10.0161    1.0783 O   0  0  0  0  0  0  0  0  0  0  0  0
    9.9306   -9.3580    1.2792 H   0  0  0  0  0  0  0  0  0  0  0  0
    7.1592   -8.3393    3.4134 S   0  0  0  0  0  0  0  0  0  0  0  0
    8.4160   -9.0881    3.7033 O   0  0  0  0  0  0  0  0  0  0  0  0
    7.1009   -6.8213    4.4692 C   0  0  0  0  0  0  0  0  0  0  0  0
    5.2594   -5.6719    5.7258 C   0  0  0  0  0  0  0  0  0  0  0  0
    4.3217   -5.6444    6.7382 C   0  0  0  0  0  0  0  0  0  0  0  0
    4.1348   -6.7480    7.5471 C   0  0  0  0  0  0  0  0  0  0  0  0
    4.8919   -7.8819    7.3302 C   0  0  0  0  0  0  0  0  0  0  0  0
    5.8325   -7.9176    6.3193 C   0  0  0  0  0  0  0  0  0  0  0  0
    6.0310   -6.8072    5.5064 C   0  0  0  0  0  0  0  0  0  0  0  0
 17 16  2  0  0  0
 17 18  1  0  0  0
 16 15  1  0  0  0
 18 19  2  0  0  0
 15 14  2  0  0  0
 19 14  1  0  0  0
 19 13  1  0  0  0
 13 11  1  0  0  0
 12 11  2  0  0  0
 11  1  1  0  0  0
  5  1  2  0  0  0
  5  6  1  0  0  0
  1  2  1  0  0  0
  6  4  2  0  0  0
  7  8  2  0  0  0
  2  8  1  0  0  0
  2  3  2  0  0  0
  8  9  1  0  0  0
  4  3  1  0  0  0
  9 10  1  0  0  0
M  END
> <minimizedAffinity>
-5.78547

$$$$
