1WC1_TAT_A_1500


 39 41  0  0  0  0  0  0  0  0999 V2000
   35.9640   41.7209  147.6098 C   0  0  0  0  0  0  0  0  0  0  0  0
   35.1754   42.6192  146.6555 C   0  0  0  0  0  0  0  0  0  0  0  0
   34.1499   41.9061  145.9580 O   0  0  0  0  0  0  0  0  0  0  0  0
   36.1690   43.0820  145.6845 C   0  0  0  0  0  0  0  0  0  0  0  0
   35.5852   43.5443  144.4598 O   0  0  0  0  0  0  0  0  0  0  0  0
   37.0270   41.8360  145.4826 C   0  0  0  0  0  0  0  0  0  0  0  0
   37.0607   41.1750  146.8092 O   0  0  0  0  0  0  0  0  0  0  0  0
   34.5474   41.1794  145.4532 H   0  0  0  0  0  0  0  0  0  0  0  0
   35.0564   42.8333  144.0652 H   0  0  0  0  0  0  0  0  0  0  0  0
   34.7922   44.3998  151.9087 N   0  0  0  0  0  0  0  0  0  0  0  0
   33.9908   43.7625  150.9421 C   0  0  0  0  0  0  0  0  0  0  0  0
   34.3935   43.0948  149.8644 N   0  0  0  0  0  0  0  0  0  0  0  0
   35.7701   43.0857  149.7585 C   0  0  0  0  0  0  0  0  0  0  0  0
   36.7176   43.6822  150.6375 C   0  0  0  0  0  0  0  0  0  0  0  0
   36.1950   44.3546  151.7577 C   0  0  0  0  0  0  0  0  0  0  0  0
   36.9583   44.9442  152.6696 N   0  0  0  0  0  0  0  0  0  0  0  0
   37.9628   43.4818  150.2320 N   0  0  0  0  0  0  0  0  0  0  0  0
   37.8092   42.7576  149.0947 C   0  0  0  0  0  0  0  0  0  0  0  0
   36.5181   42.4994  148.7797 N   0  0  0  0  0  0  0  0  0  0  0  0
   36.5443   45.4024  153.4363 H   0  0  0  0  0  0  0  0  0  0  0  0
   37.9384   44.9233  152.5792 H   0  0  0  0  0  0  0  0  0  0  0  0
   38.4379   42.1809  145.1077 C   0  0  0  0  0  0  0  0  0  0  0  0
   38.6554   43.6120  145.2234 O   0  0  0  0  0  0  0  0  0  0  0  0
   40.0088   44.2239  144.7613 P   0  0  0  0  0  0  0  0  0  0  0  0
   39.7890   45.1935  143.0375 S   0  0  0  0  0  0  0  0  0  0  0  0
   41.0897   43.1233  144.6594 O   0  0  0  0  0  0  0  0  0  0  0  0
   39.4805   44.3060  142.0543 H   0  0  0  0  0  0  0  0  0  0  0  0
   40.3629   45.2925  145.8586 O   0  0  0  0  0  0  0  0  0  0  0  0
   41.1047   44.9948  147.2403 P   0  0  0  0  0  0  0  0  0  0  0  0
   42.3786   45.8028  147.4149 O   0  0  0  0  0  0  0  0  0  0  0  0
   41.4051   43.4873  147.3964 O   0  0  0  0  0  0  0  0  0  0  0  0
   42.0667   43.2198  146.7394 H   0  0  0  0  0  0  0  0  0  0  0  0
   40.0264   45.4190  148.3150 O   0  0  0  0  0  0  0  0  0  0  0  0
   38.9056   46.5137  148.2068 P   0  0  0  0  0  0  0  0  0  0  0  0
   38.1581   46.4777  149.5105 O   0  0  0  0  0  0  0  0  0  0  0  0
   39.4653   47.8780  147.9171 O   0  0  0  0  0  0  0  0  0  0  0  0
   37.9659   46.0907  147.1066 O   0  0  0  0  0  0  0  0  0  0  0  0
   38.7498   46.7477  150.2301 H   0  0  0  0  0  0  0  0  0  0  0  0
   38.4337   46.1086  146.2571 H   0  0  0  0  0  0  0  0  0  0  0  0
 11 10  2  0  0  0
 11 12  1  0  0  0
 10 15  1  0  0  0
 12 13  2  0  0  0
  3  2  1  0  0  0
  5  4  1  0  0  0
 15 16  1  0  0  0
 15 14  2  0  0  0
 13 14  1  0  0  0
 13 19  1  0  0  0
 14 17  1  0  0  0
  1 19  1  0  0  0
  1  2  1  0  0  0
  1  7  1  0  0  0
 19 18  1  0  0  0
  2  4  1  0  0  0
 17 18  2  0  0  0
  4  6  1  0  0  0
  7  6  1  0  0  0
  6 22  1  0  0  0
 26 24  2  0  0  0
 22 23  1  0  0  0
 23 24  1  0  0  0
 24 28  1  0  0  0
 24 25  1  0  0  0
 28 29  1  0  0  0
 30 29  2  0  0  0
 29 33  1  0  0  0
 29 31  1  0  0  0
 33 34  1  0  0  0
 36 34  2  0  0  0
 35 34  1  0  0  0
 34 37  1  0  0  0
 16 20  1  0  0  0
 16 21  1  0  0  0
 35 38  1  0  0  0
 25 27  1  0  0  0
  3  8  1  0  0  0
 31 32  1  0  0  0
  5  9  1  0  0  0
 37 39  1  0  0  0
M  END
> <minimizedAffinity>
-8.90057

$$$$
1WC1_TAT_A_1500


 39 41  0  0  0  0  0  0  0  0999 V2000
   39.0095   43.6945  149.2833 C   0  0  0  0  0  0  0  0  0  0  0  0
   39.7188   42.9817  148.1307 C   0  0  0  0  0  0  0  0  0  0  0  0
   41.0776   42.6605  148.4421 O   0  0  0  0  0  0  0  0  0  0  0  0
   39.7051   43.9542  147.0361 C   0  0  0  0  0  0  0  0  0  0  0  0
   40.6982   43.6898  146.0370 O   0  0  0  0  0  0  0  0  0  0  0  0
   39.9577   45.2686  147.7696 C   0  0  0  0  0  0  0  0  0  0  0  0
   39.2646   45.1199  149.0717 O   0  0  0  0  0  0  0  0  0  0  0  0
   41.5609   43.4736  148.6571 H   0  0  0  0  0  0  0  0  0  0  0  0
   41.5765   43.6807  146.4486 H   0  0  0  0  0  0  0  0  0  0  0  0
   34.5382   44.2857  151.8694 N   0  0  0  0  0  0  0  0  0  0  0  0
   35.8633   44.6524  152.1729 C   0  0  0  0  0  0  0  0  0  0  0  0
   36.9515   44.4528  151.4343 N   0  0  0  0  0  0  0  0  0  0  0  0
   36.6519   43.7963  150.2571 C   0  0  0  0  0  0  0  0  0  0  0  0
   35.3772   43.3529  149.8044 C   0  0  0  0  0  0  0  0  0  0  0  0
   34.2847   43.6229  150.6491 C   0  0  0  0  0  0  0  0  0  0  0  0
   33.0370   43.2825  150.3504 N   0  0  0  0  0  0  0  0  0  0  0  0
   35.4523   42.7534  148.6254 N   0  0  0  0  0  0  0  0  0  0  0  0
   36.7745   42.8147  148.3264 C   0  0  0  0  0  0  0  0  0  0  0  0
   37.5223   43.4301  149.2726 N   0  0  0  0  0  0  0  0  0  0  0  0
   32.3061   43.4937  150.9752 H   0  0  0  0  0  0  0  0  0  0  0  0
   32.8425   42.8187  149.5041 H   0  0  0  0  0  0  0  0  0  0  0  0
   39.3440   46.4364  147.0558 C   0  0  0  0  0  0  0  0  0  0  0  0
   40.1787   47.6152  147.2059 O   0  0  0  0  0  0  0  0  0  0  0  0
   41.2651   47.9291  146.1379 P   0  0  0  0  0  0  0  0  0  0  0  0
   42.9854   47.0444  146.6050 S   0  0  0  0  0  0  0  0  0  0  0  0
   41.4377   49.4571  145.9792 O   0  0  0  0  0  0  0  0  0  0  0  0
   43.4823   47.5933  147.7457 H   0  0  0  0  0  0  0  0  0  0  0  0
   40.7368   47.2593  144.8173 O   0  0  0  0  0  0  0  0  0  0  0  0
   40.8732   47.8678  143.3480 P   0  0  0  0  0  0  0  0  0  0  0  0
   42.3171   48.0506  142.9141 O   0  0  0  0  0  0  0  0  0  0  0  0
   40.1079   49.2045  143.2267 O   0  0  0  0  0  0  0  0  0  0  0  0
   40.5421   49.8766  143.7750 H   0  0  0  0  0  0  0  0  0  0  0  0
   40.1572   46.7812  142.4512 O   0  0  0  0  0  0  0  0  0  0  0  0
   39.8088   45.2903  142.8001 P   0  0  0  0  0  0  0  0  0  0  0  0
   39.0015   45.3345  144.0674 O   0  0  0  0  0  0  0  0  0  0  0  0
   39.0711   44.6002  141.6874 O   0  0  0  0  0  0  0  0  0  0  0  0
   41.1065   44.5783  143.0862 O   0  0  0  0  0  0  0  0  0  0  0  0
   38.1618   45.7904  143.9001 H   0  0  0  0  0  0  0  0  0  0  0  0
   41.6401   44.5412  142.2770 H   0  0  0  0  0  0  0  0  0  0  0  0
 11 10  2  0  0  0
 11 12  1  0  0  0
 10 15  1  0  0  0
 12 13  2  0  0  0
  3  2  1  0  0  0
  5  4  1  0  0  0
 15 16  1  0  0  0
 15 14  2  0  0  0
 13 14  1  0  0  0
 13 19  1  0  0  0
 14 17  1  0  0  0
  1 19  1  0  0  0
  1  2  1  0  0  0
  1  7  1  0  0  0
 19 18  1  0  0  0
  2  4  1  0  0  0
 17 18  2  0  0  0
  4  6  1  0  0  0
  7  6  1  0  0  0
  6 22  1  0  0  0
 26 24  2  0  0  0
 22 23  1  0  0  0
 23 24  1  0  0  0
 24 28  1  0  0  0
 24 25  1  0  0  0
 28 29  1  0  0  0
 30 29  2  0  0  0
 29 33  1  0  0  0
 29 31  1  0  0  0
 33 34  1  0  0  0
 36 34  2  0  0  0
 35 34  1  0  0  0
 34 37  1  0  0  0
 16 20  1  0  0  0
 16 21  1  0  0  0
 35 38  1  0  0  0
 25 27  1  0  0  0
  3  8  1  0  0  0
 31 32  1  0  0  0
  5  9  1  0  0  0
 37 39  1  0  0  0
M  END
> <minimizedAffinity>
-8.76172

$$$$
1WC1_TAT_A_1500


 39 41  0  0  0  0  0  0  0  0999 V2000
   40.8644   45.9017  147.9488 C   0  0  0  0  0  0  0  0  0  0  0  0
   39.4978   46.5883  147.9224 C   0  0  0  0  0  0  0  0  0  0  0  0
   39.1834   47.2246  149.1646 O   0  0  0  0  0  0  0  0  0  0  0  0
   38.5456   45.4986  147.6989 C   0  0  0  0  0  0  0  0  0  0  0  0
   37.2087   45.8303  148.0949 O   0  0  0  0  0  0  0  0  0  0  0  0
   39.1378   44.3746  148.5448 C   0  0  0  0  0  0  0  0  0  0  0  0
   40.6063   44.5459  148.4355 O   0  0  0  0  0  0  0  0  0  0  0  0
   39.1935   46.5662  149.8768 H   0  0  0  0  0  0  0  0  0  0  0  0
   37.2011   46.0770  149.0329 H   0  0  0  0  0  0  0  0  0  0  0  0
   43.7788   48.4302  144.4641 N   0  0  0  0  0  0  0  0  0  0  0  0
   43.3200   48.7814  145.7481 C   0  0  0  0  0  0  0  0  0  0  0  0
   42.5691   48.0537  146.5703 N   0  0  0  0  0  0  0  0  0  0  0  0
   42.2432   46.8332  146.0128 C   0  0  0  0  0  0  0  0  0  0  0  0
   42.6160   46.3295  144.7347 C   0  0  0  0  0  0  0  0  0  0  0  0
   43.4233   47.1673  143.9432 C   0  0  0  0  0  0  0  0  0  0  0  0
   43.8597   46.8240  142.7376 N   0  0  0  0  0  0  0  0  0  0  0  0
   42.1253   45.1181  144.5184 N   0  0  0  0  0  0  0  0  0  0  0  0
   41.4400   44.8494  145.6583 C   0  0  0  0  0  0  0  0  0  0  0  0
   41.4876   45.8457  146.5739 N   0  0  0  0  0  0  0  0  0  0  0  0
   44.4227   47.4459  142.2223 H   0  0  0  0  0  0  0  0  0  0  0  0
   43.6203   45.9475  142.3586 H   0  0  0  0  0  0  0  0  0  0  0  0
   38.7935   43.0205  147.9991 C   0  0  0  0  0  0  0  0  0  0  0  0
   37.8374   42.3550  148.8661 O   0  0  0  0  0  0  0  0  0  0  0  0
   36.4075   42.0443  148.3386 P   0  0  0  0  0  0  0  0  0  0  0  0
   36.3352   40.2251  147.5354 S   0  0  0  0  0  0  0  0  0  0  0  0
   35.9587   43.1276  147.3311 O   0  0  0  0  0  0  0  0  0  0  0  0
   37.1088   40.1921  146.4174 H   0  0  0  0  0  0  0  0  0  0  0  0
   35.4999   42.0266  149.6222 O   0  0  0  0  0  0  0  0  0  0  0  0
   35.1303   43.2961  150.5164 P   0  0  0  0  0  0  0  0  0  0  0  0
   33.7965   43.1514  151.2280 O   0  0  0  0  0  0  0  0  0  0  0  0
   35.1469   44.5922  149.6755 O   0  0  0  0  0  0  0  0  0  0  0  0
   34.4219   44.5690  149.0314 H   0  0  0  0  0  0  0  0  0  0  0  0
   36.3149   43.3451  151.5614 O   0  0  0  0  0  0  0  0  0  0  0  0
   37.0673   44.5964  152.1394 P   0  0  0  0  0  0  0  0  0  0  0  0
   38.2956   44.0664  152.8252 O   0  0  0  0  0  0  0  0  0  0  0  0
   37.4073   45.6010  151.0746 O   0  0  0  0  0  0  0  0  0  0  0  0
   36.1725   45.2209  153.1795 O   0  0  0  0  0  0  0  0  0  0  0  0
   38.8829   43.6606  152.1685 H   0  0  0  0  0  0  0  0  0  0  0  0
   35.3739   45.5684  152.7524 H   0  0  0  0  0  0  0  0  0  0  0  0
 11 10  2  0  0  0
 11 12  1  0  0  0
 10 15  1  0  0  0
 12 13  2  0  0  0
  3  2  1  0  0  0
  5  4  1  0  0  0
 15 16  1  0  0  0
 15 14  2  0  0  0
 13 14  1  0  0  0
 13 19  1  0  0  0
 14 17  1  0  0  0
  1 19  1  0  0  0
  1  2  1  0  0  0
  1  7  1  0  0  0
 19 18  1  0  0  0
  2  4  1  0  0  0
 17 18  2  0  0  0
  4  6  1  0  0  0
  7  6  1  0  0  0
  6 22  1  0  0  0
 26 24  2  0  0  0
 22 23  1  0  0  0
 23 24  1  0  0  0
 24 28  1  0  0  0
 24 25  1  0  0  0
 28 29  1  0  0  0
 30 29  2  0  0  0
 29 33  1  0  0  0
 29 31  1  0  0  0
 33 34  1  0  0  0
 36 34  2  0  0  0
 35 34  1  0  0  0
 34 37  1  0  0  0
 16 20  1  0  0  0
 16 21  1  0  0  0
 35 38  1  0  0  0
 25 27  1  0  0  0
  3  8  1  0  0  0
 31 32  1  0  0  0
  5  9  1  0  0  0
 37 39  1  0  0  0
M  END
> <minimizedAffinity>
-8.64305

$$$$
1WC1_TAT_A_1500


 39 41  0  0  0  0  0  0  0  0999 V2000
   34.8277   42.8731  149.5114 C   0  0  0  0  0  0  0  0  0  0  0  0
   35.6887   42.9965  150.7696 C   0  0  0  0  0  0  0  0  0  0  0  0
   35.0150   43.6877  151.8255 O   0  0  0  0  0  0  0  0  0  0  0  0
   36.8415   43.7942  150.3466 C   0  0  0  0  0  0  0  0  0  0  0  0
   37.5272   44.4154  151.4413 O   0  0  0  0  0  0  0  0  0  0  0  0
   36.2007   44.8155  149.4108 C   0  0  0  0  0  0  0  0  0  0  0  0
   35.1071   44.0799  148.7320 O   0  0  0  0  0  0  0  0  0  0  0  0
   34.7660   44.5753  151.5236 H   0  0  0  0  0  0  0  0  0  0  0  0
   36.9087   44.9785  151.9325 H   0  0  0  0  0  0  0  0  0  0  0  0
   33.0472   39.1737  146.3216 N   0  0  0  0  0  0  0  0  0  0  0  0
   32.4132   40.2512  146.9694 C   0  0  0  0  0  0  0  0  0  0  0  0
   32.9652   41.1531  147.7763 N   0  0  0  0  0  0  0  0  0  0  0  0
   34.3157   40.9217  147.9470 C   0  0  0  0  0  0  0  0  0  0  0  0
   35.1028   39.8825  147.3754 C   0  0  0  0  0  0  0  0  0  0  0  0
   34.4316   38.9857  146.5237 C   0  0  0  0  0  0  0  0  0  0  0  0
   35.0392   37.9784  145.9090 N   0  0  0  0  0  0  0  0  0  0  0  0
   36.3698   39.9558  147.7554 N   0  0  0  0  0  0  0  0  0  0  0  0
   36.3906   41.0417  148.5689 C   0  0  0  0  0  0  0  0  0  0  0  0
   35.1868   41.6458  148.7072 N   0  0  0  0  0  0  0  0  0  0  0  0
   34.5252   37.3777  145.3224 H   0  0  0  0  0  0  0  0  0  0  0  0
   36.0040   37.8320  146.0398 H   0  0  0  0  0  0  0  0  0  0  0  0
   37.1572   45.2879  148.3563 C   0  0  0  0  0  0  0  0  0  0  0  0
   38.4981   45.3965  148.9032 O   0  0  0  0  0  0  0  0  0  0  0  0
   39.6819   44.6906  148.1824 P   0  0  0  0  0  0  0  0  0  0  0  0
   39.0103   43.3132  146.9128 S   0  0  0  0  0  0  0  0  0  0  0  0
   40.6555   44.0816  149.2174 O   0  0  0  0  0  0  0  0  0  0  0  0
   38.4083   42.3111  147.6078 H   0  0  0  0  0  0  0  0  0  0  0  0
   40.3656   45.8206  147.3298 O   0  0  0  0  0  0  0  0  0  0  0  0
   40.5856   47.3314  147.7953 P   0  0  0  0  0  0  0  0  0  0  0  0
   41.2746   47.4414  149.1442 O   0  0  0  0  0  0  0  0  0  0  0  0
   39.2494   48.1069  147.8157 O   0  0  0  0  0  0  0  0  0  0  0  0
   38.6796   47.7509  148.5153 H   0  0  0  0  0  0  0  0  0  0  0  0
   41.5051   47.9197  146.6525 O   0  0  0  0  0  0  0  0  0  0  0  0
   41.1106   48.3501  145.1947 P   0  0  0  0  0  0  0  0  0  0  0  0
   40.5193   49.7273  145.3103 O   0  0  0  0  0  0  0  0  0  0  0  0
   42.2813   48.3181  144.2528 O   0  0  0  0  0  0  0  0  0  0  0  0
   40.0340   47.4072  144.7211 O   0  0  0  0  0  0  0  0  0  0  0  0
   41.2005   50.3472  145.6146 H   0  0  0  0  0  0  0  0  0  0  0  0
   40.4000   46.5125  144.6411 H   0  0  0  0  0  0  0  0  0  0  0  0
 11 10  2  0  0  0
 11 12  1  0  0  0
 10 15  1  0  0  0
 12 13  2  0  0  0
  3  2  1  0  0  0
  5  4  1  0  0  0
 15 16  1  0  0  0
 15 14  2  0  0  0
 13 14  1  0  0  0
 13 19  1  0  0  0
 14 17  1  0  0  0
  1 19  1  0  0  0
  1  2  1  0  0  0
  1  7  1  0  0  0
 19 18  1  0  0  0
  2  4  1  0  0  0
 17 18  2  0  0  0
  4  6  1  0  0  0
  7  6  1  0  0  0
  6 22  1  0  0  0
 26 24  2  0  0  0
 22 23  1  0  0  0
 23 24  1  0  0  0
 24 28  1  0  0  0
 24 25  1  0  0  0
 28 29  1  0  0  0
 30 29  2  0  0  0
 29 33  1  0  0  0
 29 31  1  0  0  0
 33 34  1  0  0  0
 36 34  2  0  0  0
 35 34  1  0  0  0
 34 37  1  0  0  0
 16 20  1  0  0  0
 16 21  1  0  0  0
 35 38  1  0  0  0
 25 27  1  0  0  0
  3  8  1  0  0  0
 31 32  1  0  0  0
  5  9  1  0  0  0
 37 39  1  0  0  0
M  END
> <minimizedAffinity>
-8.62820

$$$$
1WC1_TAT_A_1500


 39 41  0  0  0  0  0  0  0  0999 V2000
   36.6921   43.9816  147.2018 C   0  0  0  0  0  0  0  0  0  0  0  0
   36.4070   44.3216  148.6656 C   0  0  0  0  0  0  0  0  0  0  0  0
   35.4388   45.3657  148.8040 O   0  0  0  0  0  0  0  0  0  0  0  0
   37.6897   44.7985  149.1864 C   0  0  0  0  0  0  0  0  0  0  0  0
   37.5548   45.5919  150.3725 O   0  0  0  0  0  0  0  0  0  0  0  0
   38.2357   45.6038  148.0105 C   0  0  0  0  0  0  0  0  0  0  0  0
   37.7808   44.8744  146.8026 O   0  0  0  0  0  0  0  0  0  0  0  0
   35.7551   46.1622  148.3496 H   0  0  0  0  0  0  0  0  0  0  0  0
   36.9792   46.3510  150.1899 H   0  0  0  0  0  0  0  0  0  0  0  0
   38.1247   40.3047  143.8167 N   0  0  0  0  0  0  0  0  0  0  0  0
   37.7408   41.6489  143.6486 C   0  0  0  0  0  0  0  0  0  0  0  0
   37.3876   42.5175  144.5921 N   0  0  0  0  0  0  0  0  0  0  0  0
   37.4225   41.9443  145.8478 C   0  0  0  0  0  0  0  0  0  0  0  0
   37.7781   40.6088  146.1886 C   0  0  0  0  0  0  0  0  0  0  0  0
   38.1508   39.7692  145.1226 C   0  0  0  0  0  0  0  0  0  0  0  0
   38.5211   38.5058  145.2912 N   0  0  0  0  0  0  0  0  0  0  0  0
   37.6991   40.3937  147.4934 N   0  0  0  0  0  0  0  0  0  0  0  0
   37.2933   41.5919  147.9845 C   0  0  0  0  0  0  0  0  0  0  0  0
   37.1192   42.5421  147.0359 N   0  0  0  0  0  0  0  0  0  0  0  0
   38.7730   37.9586  144.5126 H   0  0  0  0  0  0  0  0  0  0  0  0
   38.5439   38.1160  146.1950 H   0  0  0  0  0  0  0  0  0  0  0  0
   39.7354   45.6259  147.9935 C   0  0  0  0  0  0  0  0  0  0  0  0
   40.2170   46.2740  146.7865 O   0  0  0  0  0  0  0  0  0  0  0  0
   41.2484   47.4332  146.8953 P   0  0  0  0  0  0  0  0  0  0  0  0
   42.5312   47.0949  148.3786 S   0  0  0  0  0  0  0  0  0  0  0  0
   40.5207   48.7857  147.0719 O   0  0  0  0  0  0  0  0  0  0  0  0
   41.8708   47.1342  149.5669 H   0  0  0  0  0  0  0  0  0  0  0  0
   42.0609   47.3768  145.5507 O   0  0  0  0  0  0  0  0  0  0  0  0
   41.4441   47.5206  144.0856 P   0  0  0  0  0  0  0  0  0  0  0  0
   42.3347   48.3107  143.1427 O   0  0  0  0  0  0  0  0  0  0  0  0
   40.0331   48.1482  144.1357 O   0  0  0  0  0  0  0  0  0  0  0  0
   40.0997   49.0705  144.4285 H   0  0  0  0  0  0  0  0  0  0  0  0
   41.3232   46.0191  143.6076 O   0  0  0  0  0  0  0  0  0  0  0  0
   40.0377   45.2178  143.1932 P   0  0  0  0  0  0  0  0  0  0  0  0
   39.4441   45.9540  142.0247 O   0  0  0  0  0  0  0  0  0  0  0  0
   40.3407   43.7842  142.8594 O   0  0  0  0  0  0  0  0  0  0  0  0
   39.0685   45.2917  144.3455 O   0  0  0  0  0  0  0  0  0  0  0  0
   40.0567   45.9157  141.2735 H   0  0  0  0  0  0  0  0  0  0  0  0
   39.4373   44.8206  145.1089 H   0  0  0  0  0  0  0  0  0  0  0  0
 11 10  2  0  0  0
 11 12  1  0  0  0
 10 15  1  0  0  0
 12 13  2  0  0  0
  3  2  1  0  0  0
  5  4  1  0  0  0
 15 16  1  0  0  0
 15 14  2  0  0  0
 13 14  1  0  0  0
 13 19  1  0  0  0
 14 17  1  0  0  0
  1 19  1  0  0  0
  1  2  1  0  0  0
  1  7  1  0  0  0
 19 18  1  0  0  0
  2  4  1  0  0  0
 17 18  2  0  0  0
  4  6  1  0  0  0
  7  6  1  0  0  0
  6 22  1  0  0  0
 26 24  2  0  0  0
 22 23  1  0  0  0
 23 24  1  0  0  0
 24 28  1  0  0  0
 24 25  1  0  0  0
 28 29  1  0  0  0
 30 29  2  0  0  0
 29 33  1  0  0  0
 29 31  1  0  0  0
 33 34  1  0  0  0
 36 34  2  0  0  0
 35 34  1  0  0  0
 34 37  1  0  0  0
 16 20  1  0  0  0
 16 21  1  0  0  0
 35 38  1  0  0  0
 25 27  1  0  0  0
  3  8  1  0  0  0
 31 32  1  0  0  0
  5  9  1  0  0  0
 37 39  1  0  0  0
M  END
> <minimizedAffinity>
-8.59157

$$$$
1WC1_TAT_A_1500


 39 41  0  0  0  0  0  0  0  0999 V2000
   35.8980   41.6608  147.6487 C   0  0  0  0  0  0  0  0  0  0  0  0
   35.0268   42.4957  146.7086 C   0  0  0  0  0  0  0  0  0  0  0  0
   34.0621   41.7023  146.0111 O   0  0  0  0  0  0  0  0  0  0  0  0
   35.9689   43.0524  145.7356 C   0  0  0  0  0  0  0  0  0  0  0  0
   35.3377   43.4732  144.5195 O   0  0  0  0  0  0  0  0  0  0  0  0
   36.9307   41.8879  145.5156 C   0  0  0  0  0  0  0  0  0  0  0  0
   37.0320   41.2202  146.8353 O   0  0  0  0  0  0  0  0  0  0  0  0
   34.5177   41.0178  145.4965 H   0  0  0  0  0  0  0  0  0  0  0  0
   34.8699   42.7225  144.1214 H   0  0  0  0  0  0  0  0  0  0  0  0
   34.5093   44.3810  151.8561 N   0  0  0  0  0  0  0  0  0  0  0  0
   33.7586   43.7059  150.8746 C   0  0  0  0  0  0  0  0  0  0  0  0
   34.2154   43.0309  149.8234 N   0  0  0  0  0  0  0  0  0  0  0  0
   35.5947   43.0568  149.7644 C   0  0  0  0  0  0  0  0  0  0  0  0
   36.4954   43.6934  150.6642 C   0  0  0  0  0  0  0  0  0  0  0  0
   35.9172   44.3707  151.7536 C   0  0  0  0  0  0  0  0  0  0  0  0
   36.6329   44.9962  152.6800 N   0  0  0  0  0  0  0  0  0  0  0  0
   37.7586   43.5195  150.3048 N   0  0  0  0  0  0  0  0  0  0  0  0
   37.6633   42.7720  149.1763 C   0  0  0  0  0  0  0  0  0  0  0  0
   36.3909   42.4740  148.8224 N   0  0  0  0  0  0  0  0  0  0  0  0
   36.1810   45.4563  153.4239 H   0  0  0  0  0  0  0  0  0  0  0  0
   37.6158   45.0000  152.6233 H   0  0  0  0  0  0  0  0  0  0  0  0
   38.3032   42.3580  145.1345 C   0  0  0  0  0  0  0  0  0  0  0  0
   38.2158   43.4946  144.2349 O   0  0  0  0  0  0  0  0  0  0  0  0
   38.7840   43.3784  142.7916 P   0  0  0  0  0  0  0  0  0  0  0  0
   37.3318   43.5837  141.4466 S   0  0  0  0  0  0  0  0  0  0  0  0
   39.5351   42.0387  142.6156 O   0  0  0  0  0  0  0  0  0  0  0  0
   36.4724   42.5341  141.5435 H   0  0  0  0  0  0  0  0  0  0  0  0
   39.7447   44.6131  142.6365 O   0  0  0  0  0  0  0  0  0  0  0  0
   41.1541   44.7908  143.3644 P   0  0  0  0  0  0  0  0  0  0  0  0
   42.3323   44.6500  142.4165 O   0  0  0  0  0  0  0  0  0  0  0  0
   41.2992   43.8032  144.5437 O   0  0  0  0  0  0  0  0  0  0  0  0
   41.3505   42.8968  144.2020 H   0  0  0  0  0  0  0  0  0  0  0  0
   41.0715   46.2631  143.9327 O   0  0  0  0  0  0  0  0  0  0  0  0
   40.3417   46.7812  145.2231 P   0  0  0  0  0  0  0  0  0  0  0  0
   38.9466   46.2242  145.1672 O   0  0  0  0  0  0  0  0  0  0  0  0
   41.0565   46.3819  146.4833 O   0  0  0  0  0  0  0  0  0  0  0  0
   40.2596   48.2832  145.1232 O   0  0  0  0  0  0  0  0  0  0  0  0
   38.9819   45.2569  145.2304 H   0  0  0  0  0  0  0  0  0  0  0  0
   41.1533   48.6588  145.1578 H   0  0  0  0  0  0  0  0  0  0  0  0
 11 10  2  0  0  0
 11 12  1  0  0  0
 10 15  1  0  0  0
 12 13  2  0  0  0
  3  2  1  0  0  0
  5  4  1  0  0  0
 15 16  1  0  0  0
 15 14  2  0  0  0
 13 14  1  0  0  0
 13 19  1  0  0  0
 14 17  1  0  0  0
  1 19  1  0  0  0
  1  2  1  0  0  0
  1  7  1  0  0  0
 19 18  1  0  0  0
  2  4  1  0  0  0
 17 18  2  0  0  0
  4  6  1  0  0  0
  7  6  1  0  0  0
  6 22  1  0  0  0
 26 24  2  0  0  0
 22 23  1  0  0  0
 23 24  1  0  0  0
 24 28  1  0  0  0
 24 25  1  0  0  0
 28 29  1  0  0  0
 30 29  2  0  0  0
 29 33  1  0  0  0
 29 31  1  0  0  0
 33 34  1  0  0  0
 36 34  2  0  0  0
 35 34  1  0  0  0
 34 37  1  0  0  0
 16 20  1  0  0  0
 16 21  1  0  0  0
 35 38  1  0  0  0
 25 27  1  0  0  0
  3  8  1  0  0  0
 31 32  1  0  0  0
  5  9  1  0  0  0
 37 39  1  0  0  0
M  END
> <minimizedAffinity>
-8.54332

$$$$
1WC1_TAT_A_1500


 39 41  0  0  0  0  0  0  0  0999 V2000
   38.5911   42.4394  147.4603 C   0  0  0  0  0  0  0  0  0  0  0  0
   38.2908   43.4076  146.3148 C   0  0  0  0  0  0  0  0  0  0  0  0
   38.7316   42.9078  145.0489 O   0  0  0  0  0  0  0  0  0  0  0  0
   39.0624   44.6088  146.6399 C   0  0  0  0  0  0  0  0  0  0  0  0
   39.2995   45.4492  145.5034 O   0  0  0  0  0  0  0  0  0  0  0  0
   40.3528   44.0201  147.2036 C   0  0  0  0  0  0  0  0  0  0  0  0
   39.9318   42.7960  147.9262 O   0  0  0  0  0  0  0  0  0  0  0  0
   39.6868   42.7422  145.0815 H   0  0  0  0  0  0  0  0  0  0  0  0
   39.7645   44.9435  144.8186 H   0  0  0  0  0  0  0  0  0  0  0  0
   33.7951   41.3023  149.1144 N   0  0  0  0  0  0  0  0  0  0  0  0
   34.4743   41.0206  147.9136 C   0  0  0  0  0  0  0  0  0  0  0  0
   35.7172   41.3609  147.5836 N   0  0  0  0  0  0  0  0  0  0  0  0
   36.3313   42.0776  148.5914 C   0  0  0  0  0  0  0  0  0  0  0  0
   35.7884   42.4508  149.8533 C   0  0  0  0  0  0  0  0  0  0  0  0
   34.4709   42.0322  150.1160 C   0  0  0  0  0  0  0  0  0  0  0  0
   33.8416   42.2937  151.2550 N   0  0  0  0  0  0  0  0  0  0  0  0
   36.6550   43.1409  150.5798 N   0  0  0  0  0  0  0  0  0  0  0  0
   37.7502   43.2076  149.7814 C   0  0  0  0  0  0  0  0  0  0  0  0
   37.5978   42.5846  148.5890 N   0  0  0  0  0  0  0  0  0  0  0  0
   32.9188   41.9787  151.3910 H   0  0  0  0  0  0  0  0  0  0  0  0
   34.2975   42.8025  151.9638 H   0  0  0  0  0  0  0  0  0  0  0  0
   41.0009   44.9376  148.1977 C   0  0  0  0  0  0  0  0  0  0  0  0
   40.2748   46.1930  148.2740 O   0  0  0  0  0  0  0  0  0  0  0  0
   41.0178   47.5295  147.9890 P   0  0  0  0  0  0  0  0  0  0  0  0
   42.2669   47.9692  149.4744 S   0  0  0  0  0  0  0  0  0  0  0  0
   40.0014   48.6687  147.7463 O   0  0  0  0  0  0  0  0  0  0  0  0
   41.5548   48.2271  150.6041 H   0  0  0  0  0  0  0  0  0  0  0  0
   41.8898   47.2412  146.7130 O   0  0  0  0  0  0  0  0  0  0  0  0
   42.7936   48.3091  145.9446 P   0  0  0  0  0  0  0  0  0  0  0  0
   44.2788   48.1218  146.2008 O   0  0  0  0  0  0  0  0  0  0  0  0
   42.3706   49.7524  146.2981 O   0  0  0  0  0  0  0  0  0  0  0  0
   42.5772   49.9311  147.2288 H   0  0  0  0  0  0  0  0  0  0  0  0
   42.4523   48.0294  144.4271 O   0  0  0  0  0  0  0  0  0  0  0  0
   41.0486   47.9906  143.7242 P   0  0  0  0  0  0  0  0  0  0  0  0
   40.0584   48.4900  144.7390 O   0  0  0  0  0  0  0  0  0  0  0  0
   41.0189   48.8050  142.4615 O   0  0  0  0  0  0  0  0  0  0  0  0
   40.7346   46.5474  143.4219 O   0  0  0  0  0  0  0  0  0  0  0  0
   40.2470   49.4190  144.9448 H   0  0  0  0  0  0  0  0  0  0  0  0
   41.3658   46.2095  142.7675 H   0  0  0  0  0  0  0  0  0  0  0  0
 11 10  2  0  0  0
 11 12  1  0  0  0
 10 15  1  0  0  0
 12 13  2  0  0  0
  3  2  1  0  0  0
  5  4  1  0  0  0
 15 16  1  0  0  0
 15 14  2  0  0  0
 13 14  1  0  0  0
 13 19  1  0  0  0
 14 17  1  0  0  0
  1 19  1  0  0  0
  1  2  1  0  0  0
  1  7  1  0  0  0
 19 18  1  0  0  0
  2  4  1  0  0  0
 17 18  2  0  0  0
  4  6  1  0  0  0
  7  6  1  0  0  0
  6 22  1  0  0  0
 26 24  2  0  0  0
 22 23  1  0  0  0
 23 24  1  0  0  0
 24 28  1  0  0  0
 24 25  1  0  0  0
 28 29  1  0  0  0
 30 29  2  0  0  0
 29 33  1  0  0  0
 29 31  1  0  0  0
 33 34  1  0  0  0
 36 34  2  0  0  0
 35 34  1  0  0  0
 34 37  1  0  0  0
 16 20  1  0  0  0
 16 21  1  0  0  0
 35 38  1  0  0  0
 25 27  1  0  0  0
  3  8  1  0  0  0
 31 32  1  0  0  0
  5  9  1  0  0  0
 37 39  1  0  0  0
M  END
> <minimizedAffinity>
-8.45340

$$$$
1WC1_TAT_A_1500


 39 41  0  0  0  0  0  0  0  0999 V2000
   35.3400   43.5616  149.1369 C   0  0  0  0  0  0  0  0  0  0  0  0
   36.3918   43.0137  150.1028 C   0  0  0  0  0  0  0  0  0  0  0  0
   36.0361   43.2239  151.4725 O   0  0  0  0  0  0  0  0  0  0  0  0
   37.5985   43.7884  149.8068 C   0  0  0  0  0  0  0  0  0  0  0  0
   38.5522   43.7741  150.8767 O   0  0  0  0  0  0  0  0  0  0  0  0
   37.0324   45.1831  149.5548 C   0  0  0  0  0  0  0  0  0  0  0  0
   35.7254   44.9524  148.8942 O   0  0  0  0  0  0  0  0  0  0  0  0
   35.9211   44.1733  151.6346 H   0  0  0  0  0  0  0  0  0  0  0  0
   38.1382   44.1187  151.6835 H   0  0  0  0  0  0  0  0  0  0  0  0
   35.3419   38.8488  146.9415 N   0  0  0  0  0  0  0  0  0  0  0  0
   35.3812   39.2675  148.2852 C   0  0  0  0  0  0  0  0  0  0  0  0
   35.3770   40.5144  148.7485 N   0  0  0  0  0  0  0  0  0  0  0  0
   35.3372   41.4368  147.7218 C   0  0  0  0  0  0  0  0  0  0  0  0
   35.3013   41.1838  146.3215 C   0  0  0  0  0  0  0  0  0  0  0  0
   35.2944   39.8323  145.9299 C   0  0  0  0  0  0  0  0  0  0  0  0
   35.2470   39.4463  144.6608 N   0  0  0  0  0  0  0  0  0  0  0  0
   35.2714   42.3054  145.6170 N   0  0  0  0  0  0  0  0  0  0  0  0
   35.2880   43.2732  146.5680 C   0  0  0  0  0  0  0  0  0  0  0  0
   35.3254   42.7963  147.8346 N   0  0  0  0  0  0  0  0  0  0  0  0
   35.2442   38.4874  144.4377 H   0  0  0  0  0  0  0  0  0  0  0  0
   35.2147   40.1189  143.9426 H   0  0  0  0  0  0  0  0  0  0  0  0
   37.8885   45.9742  148.6107 C   0  0  0  0  0  0  0  0  0  0  0  0
   37.8206   45.4098  147.2744 O   0  0  0  0  0  0  0  0  0  0  0  0
   39.1332   45.1548  146.4798 P   0  0  0  0  0  0  0  0  0  0  0  0
   39.0086   43.4609  145.4428 S   0  0  0  0  0  0  0  0  0  0  0  0
   40.3479   45.1466  147.4360 O   0  0  0  0  0  0  0  0  0  0  0  0
   38.9380   42.4082  146.3010 H   0  0  0  0  0  0  0  0  0  0  0  0
   39.2120   46.3343  145.4434 O   0  0  0  0  0  0  0  0  0  0  0  0
   40.4309   46.6216  144.4536 P   0  0  0  0  0  0  0  0  0  0  0  0
   40.0236   46.6006  142.9907 O   0  0  0  0  0  0  0  0  0  0  0  0
   41.5905   45.6301  144.6974 O   0  0  0  0  0  0  0  0  0  0  0  0
   41.3129   44.7378  144.4375 H   0  0  0  0  0  0  0  0  0  0  0  0
   40.8943   48.0710  144.8803 O   0  0  0  0  0  0  0  0  0  0  0  0
   41.3620   48.5803  146.2902 P   0  0  0  0  0  0  0  0  0  0  0  0
   42.1555   47.4579  146.8987 O   0  0  0  0  0  0  0  0  0  0  0  0
   42.1604   49.8505  146.2031 O   0  0  0  0  0  0  0  0  0  0  0  0
   40.1256   48.7974  147.1250 O   0  0  0  0  0  0  0  0  0  0  0  0
   42.9558   47.3054  146.3724 H   0  0  0  0  0  0  0  0  0  0  0  0
   39.6016   49.5198  146.7450 H   0  0  0  0  0  0  0  0  0  0  0  0
 11 10  2  0  0  0
 11 12  1  0  0  0
 10 15  1  0  0  0
 12 13  2  0  0  0
  3  2  1  0  0  0
  5  4  1  0  0  0
 15 16  1  0  0  0
 15 14  2  0  0  0
 13 14  1  0  0  0
 13 19  1  0  0  0
 14 17  1  0  0  0
  1 19  1  0  0  0
  1  2  1  0  0  0
  1  7  1  0  0  0
 19 18  1  0  0  0
  2  4  1  0  0  0
 17 18  2  0  0  0
  4  6  1  0  0  0
  7  6  1  0  0  0
  6 22  1  0  0  0
 26 24  2  0  0  0
 22 23  1  0  0  0
 23 24  1  0  0  0
 24 28  1  0  0  0
 24 25  1  0  0  0
 28 29  1  0  0  0
 30 29  2  0  0  0
 29 33  1  0  0  0
 29 31  1  0  0  0
 33 34  1  0  0  0
 36 34  2  0  0  0
 35 34  1  0  0  0
 34 37  1  0  0  0
 16 20  1  0  0  0
 16 21  1  0  0  0
 35 38  1  0  0  0
 25 27  1  0  0  0
  3  8  1  0  0  0
 31 32  1  0  0  0
  5  9  1  0  0  0
 37 39  1  0  0  0
M  END
> <minimizedAffinity>
-8.41771

$$$$
1WC1_TAT_A_1500


 39 41  0  0  0  0  0  0  0  0999 V2000
   33.9148   42.0831  149.0603 C   0  0  0  0  0  0  0  0  0  0  0  0
   34.5797   41.8619  150.4199 C   0  0  0  0  0  0  0  0  0  0  0  0
   33.8186   42.4185  151.4959 O   0  0  0  0  0  0  0  0  0  0  0  0
   35.8528   42.5791  150.3251 C   0  0  0  0  0  0  0  0  0  0  0  0
   36.4166   42.8951  151.6044 O   0  0  0  0  0  0  0  0  0  0  0  0
   35.4612   43.8285  149.5407 C   0  0  0  0  0  0  0  0  0  0  0  0
   34.4216   43.3721  148.5874 O   0  0  0  0  0  0  0  0  0  0  0  0
   33.7026   43.3706  151.3512 H   0  0  0  0  0  0  0  0  0  0  0  0
   35.7849   43.4265  152.1138 H   0  0  0  0  0  0  0  0  0  0  0  0
   32.1026   38.7307  145.5238 N   0  0  0  0  0  0  0  0  0  0  0  0
   31.4622   39.6745  146.3494 C   0  0  0  0  0  0  0  0  0  0  0  0
   32.0236   40.4951  147.2330 N   0  0  0  0  0  0  0  0  0  0  0  0
   33.3929   40.3250  147.2844 C   0  0  0  0  0  0  0  0  0  0  0  0
   34.1892   39.4183  146.5295 C   0  0  0  0  0  0  0  0  0  0  0  0
   33.5057   38.6014  145.6100 C   0  0  0  0  0  0  0  0  0  0  0  0
   34.1186   37.7211  144.8282 N   0  0  0  0  0  0  0  0  0  0  0  0
   35.4747   39.5175  146.8341 N   0  0  0  0  0  0  0  0  0  0  0  0
   35.4980   40.4873  147.7829 C   0  0  0  0  0  0  0  0  0  0  0  0
   34.2779   40.9948  148.0776 N   0  0  0  0  0  0  0  0  0  0  0  0
   33.5954   37.1721  144.2004 H   0  0  0  0  0  0  0  0  0  0  0  0
   35.0964   37.6172  144.8761 H   0  0  0  0  0  0  0  0  0  0  0  0
   36.6081   44.3714  148.7408 C   0  0  0  0  0  0  0  0  0  0  0  0
   36.6221   43.7815  147.4139 O   0  0  0  0  0  0  0  0  0  0  0  0
   37.9604   43.2566  146.8199 P   0  0  0  0  0  0  0  0  0  0  0  0
   37.6701   42.4853  145.0086 S   0  0  0  0  0  0  0  0  0  0  0  0
   38.6074   42.2292  147.7770 O   0  0  0  0  0  0  0  0  0  0  0  0
   36.8989   41.3696  145.1092 H   0  0  0  0  0  0  0  0  0  0  0  0
   38.8539   44.5383  146.6461 O   0  0  0  0  0  0  0  0  0  0  0  0
   40.2647   44.7899  147.3491 P   0  0  0  0  0  0  0  0  0  0  0  0
   41.3964   44.0111  146.7018 O   0  0  0  0  0  0  0  0  0  0  0  0
   40.1971   44.4735  148.8599 O   0  0  0  0  0  0  0  0  0  0  0  0
   40.0654   43.5206  148.9851 H   0  0  0  0  0  0  0  0  0  0  0  0
   40.4792   46.3439  147.1575 O   0  0  0  0  0  0  0  0  0  0  0  0
   40.2862   47.5009  148.2016 P   0  0  0  0  0  0  0  0  0  0  0  0
   39.0678   47.1409  149.0050 O   0  0  0  0  0  0  0  0  0  0  0  0
   41.4965   47.6936  149.0714 O   0  0  0  0  0  0  0  0  0  0  0  0
   39.9926   48.7618  147.4293 O   0  0  0  0  0  0  0  0  0  0  0  0
   39.2406   46.3302  149.5087 H   0  0  0  0  0  0  0  0  0  0  0  0
   40.7704   49.0081  146.9046 H   0  0  0  0  0  0  0  0  0  0  0  0
 11 10  2  0  0  0
 11 12  1  0  0  0
 10 15  1  0  0  0
 12 13  2  0  0  0
  3  2  1  0  0  0
  5  4  1  0  0  0
 15 16  1  0  0  0
 15 14  2  0  0  0
 13 14  1  0  0  0
 13 19  1  0  0  0
 14 17  1  0  0  0
  1 19  1  0  0  0
  1  2  1  0  0  0
  1  7  1  0  0  0
 19 18  1  0  0  0
  2  4  1  0  0  0
 17 18  2  0  0  0
  4  6  1  0  0  0
  7  6  1  0  0  0
  6 22  1  0  0  0
 26 24  2  0  0  0
 22 23  1  0  0  0
 23 24  1  0  0  0
 24 28  1  0  0  0
 24 25  1  0  0  0
 28 29  1  0  0  0
 30 29  2  0  0  0
 29 33  1  0  0  0
 29 31  1  0  0  0
 33 34  1  0  0  0
 36 34  2  0  0  0
 35 34  1  0  0  0
 34 37  1  0  0  0
 16 20  1  0  0  0
 16 21  1  0  0  0
 35 38  1  0  0  0
 25 27  1  0  0  0
  3  8  1  0  0  0
 31 32  1  0  0  0
  5  9  1  0  0  0
 37 39  1  0  0  0
M  END
> <minimizedAffinity>
-8.38210

$$$$
1WC1_TAT_A_1500


 39 41  0  0  0  0  0  0  0  0999 V2000
   37.2065   40.8375  147.7223 C   0  0  0  0  0  0  0  0  0  0  0  0
   37.5021   39.4021  147.2843 C   0  0  0  0  0  0  0  0  0  0  0  0
   38.8714   39.0411  147.4880 O   0  0  0  0  0  0  0  0  0  0  0  0
   37.2231   39.3939  145.8469 C   0  0  0  0  0  0  0  0  0  0  0  0
   37.8607   38.3115  145.1568 O   0  0  0  0  0  0  0  0  0  0  0  0
   37.7563   40.7547  145.4074 C   0  0  0  0  0  0  0  0  0  0  0  0
   37.4703   41.6634  146.5433 O   0  0  0  0  0  0  0  0  0  0  0  0
   39.4429   39.6477  146.9918 H   0  0  0  0  0  0  0  0  0  0  0  0
   38.8192   38.3577  145.2984 H   0  0  0  0  0  0  0  0  0  0  0  0
   33.9945   43.1509  151.0930 N   0  0  0  0  0  0  0  0  0  0  0  0
   35.3943   43.1832  150.9440 C   0  0  0  0  0  0  0  0  0  0  0  0
   36.1301   42.5465  150.0371 N   0  0  0  0  0  0  0  0  0  0  0  0
   35.3471   41.7841  149.1932 C   0  0  0  0  0  0  0  0  0  0  0  0
   33.9314   41.6365  149.2113 C   0  0  0  0  0  0  0  0  0  0  0  0
   33.2394   42.3612  150.1992 C   0  0  0  0  0  0  0  0  0  0  0  0
   31.9185   42.3329  150.3261 N   0  0  0  0  0  0  0  0  0  0  0  0
   33.5070   40.8221  148.2564 N   0  0  0  0  0  0  0  0  0  0  0  0
   34.6518   40.4507  147.6296 C   0  0  0  0  0  0  0  0  0  0  0  0
   35.7694   41.0039  148.1569 N   0  0  0  0  0  0  0  0  0  0  0  0
   31.4806   42.8582  151.0344 H   0  0  0  0  0  0  0  0  0  0  0  0
   31.3765   41.7865  149.7121 H   0  0  0  0  0  0  0  0  0  0  0  0
   37.0285   41.2813  144.2061 C   0  0  0  0  0  0  0  0  0  0  0  0
   37.4568   42.6371  143.9107 O   0  0  0  0  0  0  0  0  0  0  0  0
   38.1741   42.9407  142.5644 P   0  0  0  0  0  0  0  0  0  0  0  0
   36.8963   43.7061  141.2448 S   0  0  0  0  0  0  0  0  0  0  0  0
   38.8569   41.6653  142.0191 O   0  0  0  0  0  0  0  0  0  0  0  0
   35.9688   42.7676  140.9150 H   0  0  0  0  0  0  0  0  0  0  0  0
   39.2200   44.0626  142.9095 O   0  0  0  0  0  0  0  0  0  0  0  0
   40.5928   43.8436  143.6937 P   0  0  0  0  0  0  0  0  0  0  0  0
   41.8122   43.9502  142.7947 O   0  0  0  0  0  0  0  0  0  0  0  0
   40.5976   42.4900  144.4386 O   0  0  0  0  0  0  0  0  0  0  0  0
   40.6050   41.7658  143.7933 H   0  0  0  0  0  0  0  0  0  0  0  0
   40.5808   45.0151  144.7544 O   0  0  0  0  0  0  0  0  0  0  0  0
   39.5525   45.2874  145.9096 P   0  0  0  0  0  0  0  0  0  0  0  0
   38.6741   44.0698  145.9837 O   0  0  0  0  0  0  0  0  0  0  0  0
   40.2285   45.5737  147.2209 O   0  0  0  0  0  0  0  0  0  0  0  0
   38.7048   46.4620  145.4921 O   0  0  0  0  0  0  0  0  0  0  0  0
   39.2053   43.3037  146.2516 H   0  0  0  0  0  0  0  0  0  0  0  0
   39.2577   47.2573  145.4394 H   0  0  0  0  0  0  0  0  0  0  0  0
 11 10  2  0  0  0
 11 12  1  0  0  0
 10 15  1  0  0  0
 12 13  2  0  0  0
  3  2  1  0  0  0
  5  4  1  0  0  0
 15 16  1  0  0  0
 15 14  2  0  0  0
 13 14  1  0  0  0
 13 19  1  0  0  0
 14 17  1  0  0  0
  1 19  1  0  0  0
  1  2  1  0  0  0
  1  7  1  0  0  0
 19 18  1  0  0  0
  2  4  1  0  0  0
 17 18  2  0  0  0
  4  6  1  0  0  0
  7  6  1  0  0  0
  6 22  1  0  0  0
 26 24  2  0  0  0
 22 23  1  0  0  0
 23 24  1  0  0  0
 24 28  1  0  0  0
 24 25  1  0  0  0
 28 29  1  0  0  0
 30 29  2  0  0  0
 29 33  1  0  0  0
 29 31  1  0  0  0
 33 34  1  0  0  0
 36 34  2  0  0  0
 35 34  1  0  0  0
 34 37  1  0  0  0
 16 20  1  0  0  0
 16 21  1  0  0  0
 35 38  1  0  0  0
 25 27  1  0  0  0
  3  8  1  0  0  0
 31 32  1  0  0  0
  5  9  1  0  0  0
 37 39  1  0  0  0
M  END
> <minimizedAffinity>
-8.22013

$$$$
