5I88_69G_A_205


 26 28  0  0  0  0  0  0  0  0999 V2000
  -12.5300   -7.0317   10.3184 C   0  0  0  0  0  0  0  0  0  0  0  0
  -12.6232   -4.9592   11.4949 C   0  0  0  0  0  0  0  0  0  0  0  0
  -13.6762   -4.5107   10.7615 C   0  0  0  0  0  0  0  0  0  0  0  0
  -14.2066   -5.3818    9.7108 C   0  0  0  0  0  0  0  0  0  0  0  0
  -15.2391   -5.2689    8.7618 C   0  0  0  0  0  0  0  0  0  0  0  0
  -15.2526   -6.4046    8.0368 C   0  0  0  0  0  0  0  0  0  0  0  0
  -13.6105   -6.6352    9.5085 C   0  0  0  0  0  0  0  0  0  0  0  0
  -12.0860   -6.1983   11.2757 N   0  0  0  0  0  0  0  0  0  0  0  0
  -14.2697   -7.2458    8.4705 N   0  0  0  0  0  0  0  0  0  0  0  0
  -11.9956   -8.1300   10.1393 O   0  0  0  0  0  0  0  0  0  0  0  0
  -14.0680   -8.1364    8.1027 H   0  0  0  0  0  0  0  0  0  0  0  0
  -14.1845   -3.1482   10.9885 C   0  0  0  0  0  0  0  0  0  0  0  0
  -14.3439   -2.2403    9.9446 C   0  0  0  0  0  0  0  0  0  0  0  0
  -14.8591   -0.9854   10.1881 C   0  0  0  0  0  0  0  0  0  0  0  0
  -15.2464   -0.6195   11.4653 C   0  0  0  0  0  0  0  0  0  0  0  0
  -15.1164   -1.5329   12.5128 C   0  0  0  0  0  0  0  0  0  0  0  0
  -14.5851   -2.7998   12.2759 C   0  0  0  0  0  0  0  0  0  0  0  0
  -15.5257   -1.1221   13.8740 C   0  0  0  0  0  0  0  0  0  0  0  0
  -14.7592   -1.3326   14.7870 O   0  0  0  0  0  0  0  0  0  0  0  0
  -16.7064   -0.5176   14.1372 N   0  0  0  0  0  0  0  0  0  0  0  0
  -17.0127   -0.1508   15.5219 C   0  0  0  0  0  0  0  0  0  0  0  0
  -17.6914   -0.2067   13.0991 C   0  0  0  0  0  0  0  0  0  0  0  0
  -10.9222   -6.6083   12.0714 C   0  0  0  0  0  0  0  0  0  0  0  0
  -10.6224   -5.6803   13.2194 C   0  0  0  0  0  0  0  0  0  0  0  0
   -9.8545   -5.3850   15.5430 C   0  0  0  0  0  0  0  0  0  0  0  0
  -10.1761   -6.2308   14.3311 C   0  0  0  0  0  0  0  0  0  0  0  0
 21 20  1  0  0  0
 20 22  1  0  0  0
 20 18  1  0  0  0
 19 18  2  0  0  0
 18 16  1  0  0  0
  6  9  1  0  0  0
  6  5  2  0  0  0
  9  7  1  0  0  0
  5  4  1  0  0  0
 17 16  2  0  0  0
 17 12  1  0  0  0
 16 15  1  0  0  0
  7  4  2  0  0  0
  7  1  1  0  0  0
  4  3  1  0  0  0
 10  1  2  0  0  0
  1  8  1  0  0  0
  3 12  1  0  0  0
  3  2  2  0  0  0
 12 13  2  0  0  0
 15 14  2  0  0  0
  8  2  1  0  0  0
  8 23  1  0  0  0
 13 14  1  0  0  0
 23 24  1  0  0  0
 24 26  2  0  0  0
 26 25  1  0  0  0
  9 11  1  0  0  0
M  END
> <minimizedAffinity>
-9.65063

$$$$
5I88_69G_A_205


 26 28  0  0  0  0  0  0  0  0999 V2000
  -12.5654   -7.4678   10.6359 C   0  0  0  0  0  0  0  0  0  0  0  0
  -12.5123   -5.1611   11.2397 C   0  0  0  0  0  0  0  0  0  0  0  0
  -13.5671   -4.8556   10.4386 C   0  0  0  0  0  0  0  0  0  0  0  0
  -14.1780   -5.9349    9.6599 C   0  0  0  0  0  0  0  0  0  0  0  0
  -15.2368   -6.0097    8.7367 C   0  0  0  0  0  0  0  0  0  0  0  0
  -15.3334   -7.2906    8.3296 C   0  0  0  0  0  0  0  0  0  0  0  0
  -13.6531   -7.2305    9.7749 C   0  0  0  0  0  0  0  0  0  0  0  0
  -12.0462   -6.4439   11.3359 N   0  0  0  0  0  0  0  0  0  0  0  0
  -14.3789   -8.0477    8.9441 N   0  0  0  0  0  0  0  0  0  0  0  0
  -12.0936   -8.6043   10.7345 O   0  0  0  0  0  0  0  0  0  0  0  0
  -14.2355   -9.0130    8.8142 H   0  0  0  0  0  0  0  0  0  0  0  0
  -13.9979   -3.4535   10.3174 C   0  0  0  0  0  0  0  0  0  0  0  0
  -14.3978   -2.7097   11.4247 C   0  0  0  0  0  0  0  0  0  0  0  0
  -14.7581   -1.3872   11.2799 C   0  0  0  0  0  0  0  0  0  0  0  0
  -14.7046   -0.7753   10.0397 C   0  0  0  0  0  0  0  0  0  0  0  0
  -14.2780   -1.5053    8.9291 C   0  0  0  0  0  0  0  0  0  0  0  0
  -13.9234   -2.8466    9.0663 C   0  0  0  0  0  0  0  0  0  0  0  0
  -14.2365   -0.8387    7.6088 C   0  0  0  0  0  0  0  0  0  0  0  0
  -13.2014   -0.3102    7.2701 O   0  0  0  0  0  0  0  0  0  0  0  0
  -15.2947   -0.8036    6.7677 N   0  0  0  0  0  0  0  0  0  0  0  0
  -15.1460   -0.1171    5.4823 C   0  0  0  0  0  0  0  0  0  0  0  0
  -16.5824   -1.4269    7.0807 C   0  0  0  0  0  0  0  0  0  0  0  0
  -10.8766   -6.7027   12.1850 C   0  0  0  0  0  0  0  0  0  0  0  0
  -10.6775   -5.6706   13.2639 C   0  0  0  0  0  0  0  0  0  0  0  0
  -10.0806   -5.1538   15.5990 C   0  0  0  0  0  0  0  0  0  0  0  0
  -10.2988   -6.1101   14.4478 C   0  0  0  0  0  0  0  0  0  0  0  0
 21 20  1  0  0  0
 20 22  1  0  0  0
 20 18  1  0  0  0
 19 18  2  0  0  0
 18 16  1  0  0  0
  6  9  1  0  0  0
  6  5  2  0  0  0
  9  7  1  0  0  0
  5  4  1  0  0  0
 17 16  2  0  0  0
 17 12  1  0  0  0
 16 15  1  0  0  0
  7  4  2  0  0  0
  7  1  1  0  0  0
  4  3  1  0  0  0
 10  1  2  0  0  0
  1  8  1  0  0  0
  3 12  1  0  0  0
  3  2  2  0  0  0
 12 13  2  0  0  0
 15 14  2  0  0  0
  8  2  1  0  0  0
  8 23  1  0  0  0
 13 14  1  0  0  0
 23 24  1  0  0  0
 24 26  2  0  0  0
 26 25  1  0  0  0
  9 11  1  0  0  0
M  END
> <minimizedAffinity>
-9.32680

$$$$
5I88_69G_A_205


 26 28  0  0  0  0  0  0  0  0999 V2000
  -13.1197   -7.6941   10.4414 C   0  0  0  0  0  0  0  0  0  0  0  0
  -14.4725   -5.7661   10.0657 C   0  0  0  0  0  0  0  0  0  0  0  0
  -13.6678   -4.9695   10.8179 C   0  0  0  0  0  0  0  0  0  0  0  0
  -12.4909   -5.5733   11.4460 C   0  0  0  0  0  0  0  0  0  0  0  0
  -11.4648   -5.0980   12.2829 C   0  0  0  0  0  0  0  0  0  0  0  0
  -10.6497   -6.1352   12.5582 C   0  0  0  0  0  0  0  0  0  0  0  0
  -12.2443   -6.9392   11.2443 C   0  0  0  0  0  0  0  0  0  0  0  0
  -14.1817   -7.0901    9.8798 N   0  0  0  0  0  0  0  0  0  0  0  0
  -11.1068   -7.2632   11.9413 N   0  0  0  0  0  0  0  0  0  0  0  0
  -12.9128   -8.8986   10.2674 O   0  0  0  0  0  0  0  0  0  0  0  0
  -10.6926   -8.1550   11.9880 H   0  0  0  0  0  0  0  0  0  0  0  0
  -14.0497   -3.5659   11.0425 C   0  0  0  0  0  0  0  0  0  0  0  0
  -14.1129   -2.6459    9.9990 C   0  0  0  0  0  0  0  0  0  0  0  0
  -14.5119   -1.3489   10.2397 C   0  0  0  0  0  0  0  0  0  0  0  0
  -14.8772   -0.9501   11.5137 C   0  0  0  0  0  0  0  0  0  0  0  0
  -14.8438   -1.8729   12.5605 C   0  0  0  0  0  0  0  0  0  0  0  0
  -14.4300   -3.1834   12.3264 C   0  0  0  0  0  0  0  0  0  0  0  0
  -15.2277   -1.4274   13.9182 C   0  0  0  0  0  0  0  0  0  0  0  0
  -14.4482   -1.6233   14.8234 O   0  0  0  0  0  0  0  0  0  0  0  0
  -16.3991   -0.8072   14.1862 N   0  0  0  0  0  0  0  0  0  0  0  0
  -16.6800   -0.4061   15.5667 C   0  0  0  0  0  0  0  0  0  0  0  0
  -17.3983   -0.5121   13.1571 C   0  0  0  0  0  0  0  0  0  0  0  0
  -15.1126   -7.9082    9.0924 C   0  0  0  0  0  0  0  0  0  0  0  0
  -15.5547   -7.2502    7.8116 C   0  0  0  0  0  0  0  0  0  0  0  0
  -16.8137   -7.3920    5.6971 C   0  0  0  0  0  0  0  0  0  0  0  0
  -16.3243   -7.9603    7.0105 C   0  0  0  0  0  0  0  0  0  0  0  0
 21 20  1  0  0  0
 20 22  1  0  0  0
 20 18  1  0  0  0
 19 18  2  0  0  0
 18 16  1  0  0  0
  6  9  1  0  0  0
  6  5  2  0  0  0
  9  7  1  0  0  0
  5  4  1  0  0  0
 17 16  2  0  0  0
 17 12  1  0  0  0
 16 15  1  0  0  0
  7  4  2  0  0  0
  7  1  1  0  0  0
  4  3  1  0  0  0
 10  1  2  0  0  0
  1  8  1  0  0  0
  3 12  1  0  0  0
  3  2  2  0  0  0
 12 13  2  0  0  0
 15 14  2  0  0  0
  8  2  1  0  0  0
  8 23  1  0  0  0
 13 14  1  0  0  0
 23 24  1  0  0  0
 24 26  2  0  0  0
 26 25  1  0  0  0
  9 11  1  0  0  0
M  END
> <minimizedAffinity>
-9.11471

$$$$
5I88_69G_A_205


 26 28  0  0  0  0  0  0  0  0999 V2000
  -13.2130   -7.6420   10.2301 C   0  0  0  0  0  0  0  0  0  0  0  0
  -14.4817   -5.7692    9.4740 C   0  0  0  0  0  0  0  0  0  0  0  0
  -13.7069   -4.8822   10.1526 C   0  0  0  0  0  0  0  0  0  0  0  0
  -12.5925   -5.4048   10.9460 C   0  0  0  0  0  0  0  0  0  0  0  0
  -11.6116   -4.8264   11.7721 C   0  0  0  0  0  0  0  0  0  0  0  0
  -10.8468   -5.8242   12.2572 C   0  0  0  0  0  0  0  0  0  0  0  0
  -12.3722   -6.7897   10.9700 C   0  0  0  0  0  0  0  0  0  0  0  0
  -14.2172   -7.1112    9.5104 N   0  0  0  0  0  0  0  0  0  0  0  0
  -11.2937   -7.0244   11.7864 N   0  0  0  0  0  0  0  0  0  0  0  0
  -13.0294   -8.8624   10.2544 O   0  0  0  0  0  0  0  0  0  0  0  0
  -10.9092   -7.9062   11.9959 H   0  0  0  0  0  0  0  0  0  0  0  0
  -14.0625   -3.4541   10.1359 C   0  0  0  0  0  0  0  0  0  0  0  0
  -14.4040   -2.7686   11.2990 C   0  0  0  0  0  0  0  0  0  0  0  0
  -14.6940   -1.4220   11.2518 C   0  0  0  0  0  0  0  0  0  0  0  0
  -14.6267   -0.7293   10.0555 C   0  0  0  0  0  0  0  0  0  0  0  0
  -14.2580   -1.4024    8.8896 C   0  0  0  0  0  0  0  0  0  0  0  0
  -13.9747   -2.7669    8.9279 C   0  0  0  0  0  0  0  0  0  0  0  0
  -14.2009   -0.6491    7.6174 C   0  0  0  0  0  0  0  0  0  0  0  0
  -13.1207   -0.2595    7.2343 O   0  0  0  0  0  0  0  0  0  0  0  0
  -15.2946   -0.3881    6.8662 N   0  0  0  0  0  0  0  0  0  0  0  0
  -15.1264    0.3658    5.6215 C   0  0  0  0  0  0  0  0  0  0  0  0
  -16.6403   -0.8306    7.2372 C   0  0  0  0  0  0  0  0  0  0  0  0
  -15.1163   -8.0225    8.7914 C   0  0  0  0  0  0  0  0  0  0  0  0
  -15.8825   -7.3562    7.6788 C   0  0  0  0  0  0  0  0  0  0  0  0
  -17.1026   -7.5597    5.5466 C   0  0  0  0  0  0  0  0  0  0  0  0
  -16.3296   -8.1341    6.7127 C   0  0  0  0  0  0  0  0  0  0  0  0
 21 20  1  0  0  0
 20 22  1  0  0  0
 20 18  1  0  0  0
 19 18  2  0  0  0
 18 16  1  0  0  0
  6  9  1  0  0  0
  6  5  2  0  0  0
  9  7  1  0  0  0
  5  4  1  0  0  0
 17 16  2  0  0  0
 17 12  1  0  0  0
 16 15  1  0  0  0
  7  4  2  0  0  0
  7  1  1  0  0  0
  4  3  1  0  0  0
 10  1  2  0  0  0
  1  8  1  0  0  0
  3 12  1  0  0  0
  3  2  2  0  0  0
 12 13  2  0  0  0
 15 14  2  0  0  0
  8  2  1  0  0  0
  8 23  1  0  0  0
 13 14  1  0  0  0
 23 24  1  0  0  0
 24 26  2  0  0  0
 26 25  1  0  0  0
  9 11  1  0  0  0
M  END
> <minimizedAffinity>
-8.39178

$$$$
5I88_69G_A_205


 26 28  0  0  0  0  0  0  0  0999 V2000
  -14.3050   -1.7750    8.5790 C   0  0  0  0  0  0  0  0  0  0  0  0
  -14.0508   -4.1042    8.1333 C   0  0  0  0  0  0  0  0  0  0  0  0
  -14.1222   -4.4347    9.4499 C   0  0  0  0  0  0  0  0  0  0  0  0
  -14.2924   -3.3551   10.4244 C   0  0  0  0  0  0  0  0  0  0  0  0
  -14.3870   -3.2963   11.8268 C   0  0  0  0  0  0  0  0  0  0  0  0
  -14.5237   -2.0010   12.1725 C   0  0  0  0  0  0  0  0  0  0  0  0
  -14.3760   -2.0341    9.9605 C   0  0  0  0  0  0  0  0  0  0  0  0
  -14.1574   -2.8028    7.7245 N   0  0  0  0  0  0  0  0  0  0  0  0
  -14.5152   -1.2176   11.0553 N   0  0  0  0  0  0  0  0  0  0  0  0
  -14.3692   -0.6137    8.1653 O   0  0  0  0  0  0  0  0  0  0  0  0
  -14.5951   -0.2365   11.0375 H   0  0  0  0  0  0  0  0  0  0  0  0
  -13.9419   -5.8392    9.8512 C   0  0  0  0  0  0  0  0  0  0  0  0
  -14.7838   -6.8485    9.3910 C   0  0  0  0  0  0  0  0  0  0  0  0
  -14.5620   -8.1587    9.7567 C   0  0  0  0  0  0  0  0  0  0  0  0
  -13.4886   -8.4916   10.5644 C   0  0  0  0  0  0  0  0  0  0  0  0
  -12.6232   -7.4901   11.0075 C   0  0  0  0  0  0  0  0  0  0  0  0
  -12.8484   -6.1612   10.6511 C   0  0  0  0  0  0  0  0  0  0  0  0
  -11.4865   -7.8618   11.8787 C   0  0  0  0  0  0  0  0  0  0  0  0
  -11.1781   -9.0306   11.9446 O   0  0  0  0  0  0  0  0  0  0  0  0
  -10.7777   -6.9570   12.5910 N   0  0  0  0  0  0  0  0  0  0  0  0
   -9.6692   -7.4322   13.4223 C   0  0  0  0  0  0  0  0  0  0  0  0
  -11.0637   -5.5210   12.5643 C   0  0  0  0  0  0  0  0  0  0  0  0
  -14.0291   -2.5052    6.2925 C   0  0  0  0  0  0  0  0  0  0  0  0
  -14.1477   -3.7225    5.4132 C   0  0  0  0  0  0  0  0  0  0  0  0
  -13.2883   -5.0418    3.5167 C   0  0  0  0  0  0  0  0  0  0  0  0
  -13.2496   -3.8583    4.4576 C   0  0  0  0  0  0  0  0  0  0  0  0
 21 20  1  0  0  0
 20 22  1  0  0  0
 20 18  1  0  0  0
 19 18  2  0  0  0
 18 16  1  0  0  0
  6  9  1  0  0  0
  6  5  2  0  0  0
  9  7  1  0  0  0
  5  4  1  0  0  0
 17 16  2  0  0  0
 17 12  1  0  0  0
 16 15  1  0  0  0
  7  4  2  0  0  0
  7  1  1  0  0  0
  4  3  1  0  0  0
 10  1  2  0  0  0
  1  8  1  0  0  0
  3 12  1  0  0  0
  3  2  2  0  0  0
 12 13  2  0  0  0
 15 14  2  0  0  0
  8  2  1  0  0  0
  8 23  1  0  0  0
 13 14  1  0  0  0
 23 24  1  0  0  0
 24 26  2  0  0  0
 26 25  1  0  0  0
  9 11  1  0  0  0
M  END
> <minimizedAffinity>
-8.22791

$$$$
5I88_69G_A_205


 26 28  0  0  0  0  0  0  0  0999 V2000
  -14.5530   -1.7259    8.4130 C   0  0  0  0  0  0  0  0  0  0  0  0
  -14.3407   -3.4049   10.0936 C   0  0  0  0  0  0  0  0  0  0  0  0
  -14.1416   -4.3920    9.1805 C   0  0  0  0  0  0  0  0  0  0  0  0
  -14.1533   -4.0320    7.7611 C   0  0  0  0  0  0  0  0  0  0  0  0
  -14.0080   -4.7485    6.5592 C   0  0  0  0  0  0  0  0  0  0  0  0
  -14.1261   -3.8703    5.5440 C   0  0  0  0  0  0  0  0  0  0  0  0
  -14.3661   -2.6918    7.4066 C   0  0  0  0  0  0  0  0  0  0  0  0
  -14.5245   -2.1068    9.7024 N   0  0  0  0  0  0  0  0  0  0  0  0
  -14.3481   -2.6171    6.0358 N   0  0  0  0  0  0  0  0  0  0  0  0
  -14.7495   -0.5463    8.1069 O   0  0  0  0  0  0  0  0  0  0  0  0
  -14.4737   -1.8005    5.5004 H   0  0  0  0  0  0  0  0  0  0  0  0
  -14.0089   -5.7837    9.6407 C   0  0  0  0  0  0  0  0  0  0  0  0
  -14.8797   -6.7840    9.2160 C   0  0  0  0  0  0  0  0  0  0  0  0
  -14.7023   -8.0842    9.6371 C   0  0  0  0  0  0  0  0  0  0  0  0
  -13.6453   -8.4173   10.4661 C   0  0  0  0  0  0  0  0  0  0  0  0
  -12.7510   -7.4262   10.8741 C   0  0  0  0  0  0  0  0  0  0  0  0
  -12.9313   -6.1068   10.4615 C   0  0  0  0  0  0  0  0  0  0  0  0
  -11.6325   -7.7974   11.7686 C   0  0  0  0  0  0  0  0  0  0  0  0
  -11.3686   -8.9723   11.8929 O   0  0  0  0  0  0  0  0  0  0  0  0
  -10.8926   -6.8861   12.4400 N   0  0  0  0  0  0  0  0  0  0  0  0
   -9.8059   -7.3616   13.2995 C   0  0  0  0  0  0  0  0  0  0  0  0
  -11.1242   -5.4435   12.3422 C   0  0  0  0  0  0  0  0  0  0  0  0
  -14.7777   -1.0931   10.7339 C   0  0  0  0  0  0  0  0  0  0  0  0
  -14.6800   -1.6282   12.1385 C   0  0  0  0  0  0  0  0  0  0  0  0
  -15.5314   -1.6383   14.4518 C   0  0  0  0  0  0  0  0  0  0  0  0
  -15.5525   -1.1693   13.0141 C   0  0  0  0  0  0  0  0  0  0  0  0
 21 20  1  0  0  0
 20 22  1  0  0  0
 20 18  1  0  0  0
 19 18  2  0  0  0
 18 16  1  0  0  0
  6  9  1  0  0  0
  6  5  2  0  0  0
  9  7  1  0  0  0
  5  4  1  0  0  0
 17 16  2  0  0  0
 17 12  1  0  0  0
 16 15  1  0  0  0
  7  4  2  0  0  0
  7  1  1  0  0  0
  4  3  1  0  0  0
 10  1  2  0  0  0
  1  8  1  0  0  0
  3 12  1  0  0  0
  3  2  2  0  0  0
 12 13  2  0  0  0
 15 14  2  0  0  0
  8  2  1  0  0  0
  8 23  1  0  0  0
 13 14  1  0  0  0
 23 24  1  0  0  0
 24 26  2  0  0  0
 26 25  1  0  0  0
  9 11  1  0  0  0
M  END
> <minimizedAffinity>
-8.18844

$$$$
5I88_69G_A_205


 26 28  0  0  0  0  0  0  0  0999 V2000
  -11.7016   -5.3835   11.9180 C   0  0  0  0  0  0  0  0  0  0  0  0
  -12.2752   -6.8614   10.1360 C   0  0  0  0  0  0  0  0  0  0  0  0
  -13.3513   -6.1153    9.7711 C   0  0  0  0  0  0  0  0  0  0  0  0
  -13.6431   -4.9030   10.5388 C   0  0  0  0  0  0  0  0  0  0  0  0
  -14.6426   -3.9145   10.4819 C   0  0  0  0  0  0  0  0  0  0  0  0
  -14.4009   -3.0326   11.4716 C   0  0  0  0  0  0  0  0  0  0  0  0
  -12.8038   -4.5642   11.6102 C   0  0  0  0  0  0  0  0  0  0  0  0
  -11.4719   -6.4815   11.1764 N   0  0  0  0  0  0  0  0  0  0  0  0
  -13.2920   -3.4103   12.1713 N   0  0  0  0  0  0  0  0  0  0  0  0
  -10.9644   -5.0953   12.8652 O   0  0  0  0  0  0  0  0  0  0  0  0
  -12.9084   -2.9371   12.9448 H   0  0  0  0  0  0  0  0  0  0  0  0
  -14.2241   -6.5917    8.6860 C   0  0  0  0  0  0  0  0  0  0  0  0
  -15.1397   -7.6230    8.8789 C   0  0  0  0  0  0  0  0  0  0  0  0
  -15.9685   -8.0176    7.8508 C   0  0  0  0  0  0  0  0  0  0  0  0
  -15.9192   -7.3802    6.6234 C   0  0  0  0  0  0  0  0  0  0  0  0
  -15.0241   -6.3267    6.4296 C   0  0  0  0  0  0  0  0  0  0  0  0
  -14.1747   -5.9302    7.4615 C   0  0  0  0  0  0  0  0  0  0  0  0
  -14.9771   -5.6629    5.1081 C   0  0  0  0  0  0  0  0  0  0  0  0
  -14.2490   -6.1305    4.2616 O   0  0  0  0  0  0  0  0  0  0  0  0
  -15.7146   -4.5705    4.8059 N   0  0  0  0  0  0  0  0  0  0  0  0
  -15.5933   -3.9917    3.4657 C   0  0  0  0  0  0  0  0  0  0  0  0
  -16.6348   -3.9424    5.7563 C   0  0  0  0  0  0  0  0  0  0  0  0
  -10.3500   -7.3520   11.5497 C   0  0  0  0  0  0  0  0  0  0  0  0
  -10.5697   -8.0937   12.8422 C   0  0  0  0  0  0  0  0  0  0  0  0
   -9.6984   -8.8068   15.0350 C   0  0  0  0  0  0  0  0  0  0  0  0
   -9.5789   -8.0841   13.7118 C   0  0  0  0  0  0  0  0  0  0  0  0
 21 20  1  0  0  0
 20 22  1  0  0  0
 20 18  1  0  0  0
 19 18  2  0  0  0
 18 16  1  0  0  0
  6  9  1  0  0  0
  6  5  2  0  0  0
  9  7  1  0  0  0
  5  4  1  0  0  0
 17 16  2  0  0  0
 17 12  1  0  0  0
 16 15  1  0  0  0
  7  4  2  0  0  0
  7  1  1  0  0  0
  4  3  1  0  0  0
 10  1  2  0  0  0
  1  8  1  0  0  0
  3 12  1  0  0  0
  3  2  2  0  0  0
 12 13  2  0  0  0
 15 14  2  0  0  0
  8  2  1  0  0  0
  8 23  1  0  0  0
 13 14  1  0  0  0
 23 24  1  0  0  0
 24 26  2  0  0  0
 26 25  1  0  0  0
  9 11  1  0  0  0
M  END
> <minimizedAffinity>
-8.02534

$$$$
5I88_69G_A_205


 26 28  0  0  0  0  0  0  0  0999 V2000
  -14.9557   -1.5644   13.4329 C   0  0  0  0  0  0  0  0  0  0  0  0
  -15.6891   -0.1996   11.6196 C   0  0  0  0  0  0  0  0  0  0  0  0
  -15.1940   -1.0539   10.6854 C   0  0  0  0  0  0  0  0  0  0  0  0
  -14.5145   -2.2654   11.1489 C   0  0  0  0  0  0  0  0  0  0  0  0
  -13.8755   -3.3446   10.5116 C   0  0  0  0  0  0  0  0  0  0  0  0
  -13.4152   -4.1707   11.4716 C   0  0  0  0  0  0  0  0  0  0  0  0
  -14.4059   -2.4923   12.5287 C   0  0  0  0  0  0  0  0  0  0  0  0
  -15.5777   -0.4718   12.9559 N   0  0  0  0  0  0  0  0  0  0  0  0
  -13.7226   -3.6701   12.7033 N   0  0  0  0  0  0  0  0  0  0  0  0
  -14.8555   -1.7543   14.6485 O   0  0  0  0  0  0  0  0  0  0  0  0
  -13.4938   -4.0824   13.5676 H   0  0  0  0  0  0  0  0  0  0  0  0
  -15.2810   -0.6935    9.2611 C   0  0  0  0  0  0  0  0  0  0  0  0
  -16.3754   -0.0055    8.7430 C   0  0  0  0  0  0  0  0  0  0  0  0
  -16.4057    0.3497    7.4117 C   0  0  0  0  0  0  0  0  0  0  0  0
  -15.3418    0.0496    6.5790 C   0  0  0  0  0  0  0  0  0  0  0  0
  -14.2285   -0.6149    7.0960 C   0  0  0  0  0  0  0  0  0  0  0  0
  -14.1961   -0.9876    8.4390 C   0  0  0  0  0  0  0  0  0  0  0  0
  -13.1041   -0.9371    6.1899 C   0  0  0  0  0  0  0  0  0  0  0  0
  -12.2239   -0.1162    6.0605 O   0  0  0  0  0  0  0  0  0  0  0  0
  -13.0146   -2.1045    5.5133 N   0  0  0  0  0  0  0  0  0  0  0  0
  -11.8573   -2.3228    4.6421 C   0  0  0  0  0  0  0  0  0  0  0  0
  -14.0197   -3.1645    5.6165 C   0  0  0  0  0  0  0  0  0  0  0  0
  -16.0943    0.5109   13.9168 C   0  0  0  0  0  0  0  0  0  0  0  0
  -17.5339    0.8844   13.6785 C   0  0  0  0  0  0  0  0  0  0  0  0
  -19.8947    0.1887   13.5414 C   0  0  0  0  0  0  0  0  0  0  0  0
  -18.4248   -0.0830   13.7716 C   0  0  0  0  0  0  0  0  0  0  0  0
 21 20  1  0  0  0
 20 22  1  0  0  0
 20 18  1  0  0  0
 19 18  2  0  0  0
 18 16  1  0  0  0
  6  9  1  0  0  0
  6  5  2  0  0  0
  9  7  1  0  0  0
  5  4  1  0  0  0
 17 16  2  0  0  0
 17 12  1  0  0  0
 16 15  1  0  0  0
  7  4  2  0  0  0
  7  1  1  0  0  0
  4  3  1  0  0  0
 10  1  2  0  0  0
  1  8  1  0  0  0
  3 12  1  0  0  0
  3  2  2  0  0  0
 12 13  2  0  0  0
 15 14  2  0  0  0
  8  2  1  0  0  0
  8 23  1  0  0  0
 13 14  1  0  0  0
 23 24  1  0  0  0
 24 26  2  0  0  0
 26 25  1  0  0  0
  9 11  1  0  0  0
M  END
> <minimizedAffinity>
-7.69966

$$$$
5I88_69G_A_205


 26 28  0  0  0  0  0  0  0  0999 V2000
  -14.7847   -6.1142    4.0465 C   0  0  0  0  0  0  0  0  0  0  0  0
  -15.1271   -7.0671    6.2060 C   0  0  0  0  0  0  0  0  0  0  0  0
  -14.6651   -5.9595    6.8443 C   0  0  0  0  0  0  0  0  0  0  0  0
  -14.2157   -4.8296    6.0285 C   0  0  0  0  0  0  0  0  0  0  0  0
  -13.6745   -3.5618    6.3097 C   0  0  0  0  0  0  0  0  0  0  0  0
  -13.4371   -2.9495    5.1330 C   0  0  0  0  0  0  0  0  0  0  0  0
  -14.2825   -4.9369    4.6317 C   0  0  0  0  0  0  0  0  0  0  0  0
  -15.1931   -7.1199    4.8404 N   0  0  0  0  0  0  0  0  0  0  0  0
  -13.7949   -3.7681    4.1016 N   0  0  0  0  0  0  0  0  0  0  0  0
  -14.8378   -6.2180    2.8176 O   0  0  0  0  0  0  0  0  0  0  0  0
  -13.7169   -3.5571    3.1432 H   0  0  0  0  0  0  0  0  0  0  0  0
  -14.5535   -5.9672    8.3119 C   0  0  0  0  0  0  0  0  0  0  0  0
  -15.4908   -5.3326    9.1231 C   0  0  0  0  0  0  0  0  0  0  0  0
  -15.3762   -5.3930   10.4952 C   0  0  0  0  0  0  0  0  0  0  0  0
  -14.3448   -6.1032   11.0845 C   0  0  0  0  0  0  0  0  0  0  0  0
  -13.4168   -6.7659   10.2794 C   0  0  0  0  0  0  0  0  0  0  0  0
  -13.5199   -6.6992    8.8907 C   0  0  0  0  0  0  0  0  0  0  0  0
  -12.3145   -7.5121   10.9254 C   0  0  0  0  0  0  0  0  0  0  0  0
  -12.3137   -8.7191   10.8338 O   0  0  0  0  0  0  0  0  0  0  0  0
  -11.3112   -6.9064   11.6000 N   0  0  0  0  0  0  0  0  0  0  0  0
  -10.2677   -7.7401   12.2016 C   0  0  0  0  0  0  0  0  0  0  0  0
  -11.2164   -5.4530   11.7517 C   0  0  0  0  0  0  0  0  0  0  0  0
  -15.6607   -8.3601    4.2087 C   0  0  0  0  0  0  0  0  0  0  0  0
  -16.3418   -9.3021    5.1665 C   0  0  0  0  0  0  0  0  0  0  0  0
  -17.8619  -11.2100    5.5203 C   0  0  0  0  0  0  0  0  0  0  0  0
  -17.1265  -10.2226    4.6420 C   0  0  0  0  0  0  0  0  0  0  0  0
 21 20  1  0  0  0
 20 22  1  0  0  0
 20 18  1  0  0  0
 19 18  2  0  0  0
 18 16  1  0  0  0
  6  9  1  0  0  0
  6  5  2  0  0  0
  9  7  1  0  0  0
  5  4  1  0  0  0
 17 16  2  0  0  0
 17 12  1  0  0  0
 16 15  1  0  0  0
  7  4  2  0  0  0
  7  1  1  0  0  0
  4  3  1  0  0  0
 10  1  2  0  0  0
  1  8  1  0  0  0
  3 12  1  0  0  0
  3  2  2  0  0  0
 12 13  2  0  0  0
 15 14  2  0  0  0
  8  2  1  0  0  0
  8 23  1  0  0  0
 13 14  1  0  0  0
 23 24  1  0  0  0
 24 26  2  0  0  0
 26 25  1  0  0  0
  9 11  1  0  0  0
M  END
> <minimizedAffinity>
-7.64516

$$$$
5I88_69G_A_205


 26 28  0  0  0  0  0  0  0  0999 V2000
  -14.0370   -4.2510   10.9355 C   0  0  0  0  0  0  0  0  0  0  0  0
  -14.0627   -3.5477    8.6567 C   0  0  0  0  0  0  0  0  0  0  0  0
  -14.2834   -2.2480    8.9880 C   0  0  0  0  0  0  0  0  0  0  0  0
  -14.3995   -1.9075   10.4074 C   0  0  0  0  0  0  0  0  0  0  0  0
  -14.6373   -0.7191   11.1218 C   0  0  0  0  0  0  0  0  0  0  0  0
  -14.6502   -1.0274   12.4336 C   0  0  0  0  0  0  0  0  0  0  0  0
  -14.2768   -2.9305   11.3590 C   0  0  0  0  0  0  0  0  0  0  0  0
  -13.9296   -4.5098    9.6203 N   0  0  0  0  0  0  0  0  0  0  0  0
  -14.4377   -2.3650   12.5996 N   0  0  0  0  0  0  0  0  0  0  0  0
  -13.9369   -5.1570   11.7680 O   0  0  0  0  0  0  0  0  0  0  0  0
  -14.4054   -2.8420   13.4602 H   0  0  0  0  0  0  0  0  0  0  0  0
  -14.4812   -1.2554    7.9194 C   0  0  0  0  0  0  0  0  0  0  0  0
  -15.6831   -0.5683    7.7684 C   0  0  0  0  0  0  0  0  0  0  0  0
  -15.8203    0.3826    6.7803 C   0  0  0  0  0  0  0  0  0  0  0  0
  -14.7610    0.6842    5.9422 C   0  0  0  0  0  0  0  0  0  0  0  0
  -13.5437    0.0206    6.1044 C   0  0  0  0  0  0  0  0  0  0  0  0
  -13.4016   -0.9508    7.0942 C   0  0  0  0  0  0  0  0  0  0  0  0
  -12.4246    0.3477    5.1934 C   0  0  0  0  0  0  0  0  0  0  0  0
  -11.6410    1.2034    5.5385 O   0  0  0  0  0  0  0  0  0  0  0  0
  -12.2368   -0.2708    4.0057 N   0  0  0  0  0  0  0  0  0  0  0  0
  -11.0948    0.1290    3.1801 C   0  0  0  0  0  0  0  0  0  0  0  0
  -13.1203   -1.3279    3.5092 C   0  0  0  0  0  0  0  0  0  0  0  0
  -13.7356   -5.9026    9.1981 C   0  0  0  0  0  0  0  0  0  0  0  0
  -14.4851   -6.2589    7.9410 C   0  0  0  0  0  0  0  0  0  0  0  0
  -16.2404   -7.5974    6.8439 C   0  0  0  0  0  0  0  0  0  0  0  0
  -15.4364   -7.1652    8.0498 C   0  0  0  0  0  0  0  0  0  0  0  0
 21 20  1  0  0  0
 20 22  1  0  0  0
 20 18  1  0  0  0
 19 18  2  0  0  0
 18 16  1  0  0  0
  6  9  1  0  0  0
  6  5  2  0  0  0
  9  7  1  0  0  0
  5  4  1  0  0  0
 17 16  2  0  0  0
 17 12  1  0  0  0
 16 15  1  0  0  0
  7  4  2  0  0  0
  7  1  1  0  0  0
  4  3  1  0  0  0
 10  1  2  0  0  0
  1  8  1  0  0  0
  3 12  1  0  0  0
  3  2  2  0  0  0
 12 13  2  0  0  0
 15 14  2  0  0  0
  8  2  1  0  0  0
  8 23  1  0  0  0
 13 14  1  0  0  0
 23 24  1  0  0  0
 24 26  2  0  0  0
 26 25  1  0  0  0
  9 11  1  0  0  0
M  END
> <minimizedAffinity>
-7.43593

$$$$
