1U71_MXA_A_187


 28 30  0  0  0  0  0  0  0  0999 V2000
   28.4294   13.1185   -4.6616 N   0  0  0  0  0  0  0  0  0  0  0  0
   27.2794   12.5012   -4.6604 C   0  0  0  0  0  0  0  0  0  0  0  0
   26.7873   12.1094   -5.8499 N   0  0  0  0  0  0  0  0  0  0  0  0
   26.5804   12.1684   -3.5407 N   0  0  0  0  0  0  0  0  0  0  0  0
   27.0267   12.4855   -2.3774 C   0  0  0  0  0  0  0  0  0  0  0  0
   26.1956   12.1044   -1.3944 N   0  0  0  0  0  0  0  0  0  0  0  0
   28.2533   13.2332   -2.2285 C   0  0  0  0  0  0  0  0  0  0  0  0
   28.8651   13.7004   -1.0577 C   0  0  0  0  0  0  0  0  0  0  0  0
   28.3038   13.4997    0.3405 C   0  0  0  0  0  0  0  0  0  0  0  0
   30.0640   14.3911   -1.1739 C   0  0  0  0  0  0  0  0  0  0  0  0
   30.5884   14.6081   -2.4581 C   0  0  0  0  0  0  0  0  0  0  0  0
   30.0643   14.1952   -3.5792 N   0  0  0  0  0  0  0  0  0  0  0  0
   28.9135   13.5083   -3.4733 C   0  0  0  0  0  0  0  0  0  0  0  0
   27.2680   12.3335   -6.6793 H   0  0  0  0  0  0  0  0  0  0  0  0
   25.9466   11.5988   -5.8907 H   0  0  0  0  0  0  0  0  0  0  0  0
   25.3811   11.5945   -1.6084 H   0  0  0  0  0  0  0  0  0  0  0  0
   26.4007   12.3347   -0.4594 H   0  0  0  0  0  0  0  0  0  0  0  0
   30.7866   14.9943   -0.0096 C   0  0  0  0  0  0  0  0  0  0  0  0
   32.0484   14.3796    0.5439 C   0  0  0  0  0  0  0  0  0  0  0  0
   33.3027   14.9277    0.3088 C   0  0  0  0  0  0  0  0  0  0  0  0
   34.4114   14.3436    0.8752 C   0  0  0  0  0  0  0  0  0  0  0  0
   34.2864   13.2109    1.6893 C   0  0  0  0  0  0  0  0  0  0  0  0
   33.0811   12.6757    1.8960 C   0  0  0  0  0  0  0  0  0  0  0  0
   31.9601   13.2812    1.3503 C   0  0  0  0  0  0  0  0  0  0  0  0
   33.2887   16.0719   -0.4654 O   0  0  0  0  0  0  0  0  0  0  0  0
   34.2377   17.0923   -0.1564 C   0  0  0  0  0  0  0  0  0  0  0  0
   32.6751   11.5563    2.6231 O   0  0  0  0  0  0  0  0  0  0  0  0
   32.5127   10.4338    1.7537 C   0  0  0  0  0  0  0  0  0  0  0  0
  1  2  2  0  0  0
  1 13  1  0  0  0
  2  3  1  0  0  0
  2  4  1  0  0  0
  4  5  2  0  0  0
  5  6  1  0  0  0
  5  7  1  0  0  0
  7  8  1  0  0  0
  7 13  2  0  0  0
  8  9  1  0  0  0
  8 10  2  0  0  0
 10 11  1  0  0  0
 10 18  1  0  0  0
 11 12  2  0  0  0
 12 13  1  0  0  0
 18 19  1  0  0  0
 19 20  2  0  0  0
 19 24  1  0  0  0
 20 25  1  0  0  0
 20 21  1  0  0  0
 25 26  1  0  0  0
 21 22  2  0  0  0
 22 23  1  0  0  0
 23 27  1  0  0  0
 23 24  2  0  0  0
 27 28  1  0  0  0
  3 14  1  0  0  0
  3 15  1  0  0  0
  6 16  1  0  0  0
  6 17  1  0  0  0
M  END
> <minimizedAffinity>
-9.57972

$$$$
1U71_MXA_A_187


 28 30  0  0  0  0  0  0  0  0999 V2000
   30.8421   10.5733    3.8177 N   0  0  0  0  0  0  0  0  0  0  0  0
   30.7494    9.2716    3.8437 C   0  0  0  0  0  0  0  0  0  0  0  0
   31.4409    8.6220    4.7979 N   0  0  0  0  0  0  0  0  0  0  0  0
   29.9536    8.5354    3.0204 N   0  0  0  0  0  0  0  0  0  0  0  0
   29.2429    9.1116    2.1172 C   0  0  0  0  0  0  0  0  0  0  0  0
   28.5455    8.2306    1.3825 N   0  0  0  0  0  0  0  0  0  0  0  0
   29.2986   10.5419    1.9254 C   0  0  0  0  0  0  0  0  0  0  0  0
   28.6371   11.3310    0.9752 C   0  0  0  0  0  0  0  0  0  0  0  0
   27.7001   10.7840   -0.0894 C   0  0  0  0  0  0  0  0  0  0  0  0
   28.8441   12.7037    1.0025 C   0  0  0  0  0  0  0  0  0  0  0  0
   29.7241   13.2276    1.9629 C   0  0  0  0  0  0  0  0  0  0  0  0
   30.3634   12.5425    2.8706 N   0  0  0  0  0  0  0  0  0  0  0  0
   30.1524   11.2148    2.8631 C   0  0  0  0  0  0  0  0  0  0  0  0
   32.0257    9.1243    5.4102 H   0  0  0  0  0  0  0  0  0  0  0  0
   31.3619    7.6445    4.8837 H   0  0  0  0  0  0  0  0  0  0  0  0
   28.5786    7.2714    1.6017 H   0  0  0  0  0  0  0  0  0  0  0  0
   28.0009    8.5438    0.6244 H   0  0  0  0  0  0  0  0  0  0  0  0
   28.2473   13.6497    0.0073 C   0  0  0  0  0  0  0  0  0  0  0  0
   28.9353   13.9631   -1.2984 C   0  0  0  0  0  0  0  0  0  0  0  0
   29.9007   14.9558   -1.4059 C   0  0  0  0  0  0  0  0  0  0  0  0
   30.5209   15.1659   -2.6153 C   0  0  0  0  0  0  0  0  0  0  0  0
   30.1946   14.3861   -3.7319 C   0  0  0  0  0  0  0  0  0  0  0  0
   29.2518   13.4466   -3.6289 C   0  0  0  0  0  0  0  0  0  0  0  0
   28.6477   13.2140   -2.4033 C   0  0  0  0  0  0  0  0  0  0  0  0
   30.1704   15.6189   -0.2242 O   0  0  0  0  0  0  0  0  0  0  0  0
   31.5360   15.9020    0.0794 C   0  0  0  0  0  0  0  0  0  0  0  0
   28.7174   12.5617   -4.5657 O   0  0  0  0  0  0  0  0  0  0  0  0
   27.2896   12.6107   -4.5344 C   0  0  0  0  0  0  0  0  0  0  0  0
  1  2  2  0  0  0
  1 13  1  0  0  0
  2  3  1  0  0  0
  2  4  1  0  0  0
  4  5  2  0  0  0
  5  6  1  0  0  0
  5  7  1  0  0  0
  7  8  1  0  0  0
  7 13  2  0  0  0
  8  9  1  0  0  0
  8 10  2  0  0  0
 10 11  1  0  0  0
 10 18  1  0  0  0
 11 12  2  0  0  0
 12 13  1  0  0  0
 18 19  1  0  0  0
 19 20  2  0  0  0
 19 24  1  0  0  0
 20 25  1  0  0  0
 20 21  1  0  0  0
 25 26  1  0  0  0
 21 22  2  0  0  0
 22 23  1  0  0  0
 23 27  1  0  0  0
 23 24  2  0  0  0
 27 28  1  0  0  0
  3 14  1  0  0  0
  3 15  1  0  0  0
  6 16  1  0  0  0
  6 17  1  0  0  0
M  END
> <minimizedAffinity>
-9.47473

$$$$
1U71_MXA_A_187


 28 30  0  0  0  0  0  0  0  0999 V2000
   31.2064   10.2986    3.6979 N   0  0  0  0  0  0  0  0  0  0  0  0
   30.3901    9.7060    4.5261 C   0  0  0  0  0  0  0  0  0  0  0  0
   30.7187    9.7165    5.8309 N   0  0  0  0  0  0  0  0  0  0  0  0
   29.2034    9.1406    4.1723 N   0  0  0  0  0  0  0  0  0  0  0  0
   28.8249    9.1386    2.9436 C   0  0  0  0  0  0  0  0  0  0  0  0
   27.6479    8.5148    2.7768 N   0  0  0  0  0  0  0  0  0  0  0  0
   29.6601    9.6966    1.9059 C   0  0  0  0  0  0  0  0  0  0  0  0
   29.4361    9.7446    0.5236 C   0  0  0  0  0  0  0  0  0  0  0  0
   28.2078    9.1726   -0.1651 C   0  0  0  0  0  0  0  0  0  0  0  0
   30.3932   10.3548   -0.2760 C   0  0  0  0  0  0  0  0  0  0  0  0
   31.5468   10.8691    0.3371 C   0  0  0  0  0  0  0  0  0  0  0  0
   31.8061   10.8543    1.6157 N   0  0  0  0  0  0  0  0  0  0  0  0
   30.8745   10.2828    2.3986 C   0  0  0  0  0  0  0  0  0  0  0  0
   31.5697   10.1175    6.1210 H   0  0  0  0  0  0  0  0  0  0  0  0
   30.1081    9.3231    6.4955 H   0  0  0  0  0  0  0  0  0  0  0  0
   27.1582    8.1704    3.5583 H   0  0  0  0  0  0  0  0  0  0  0  0
   27.2744    8.4018    1.8729 H   0  0  0  0  0  0  0  0  0  0  0  0
   30.3044   10.4182   -1.7692 C   0  0  0  0  0  0  0  0  0  0  0  0
   30.5078   11.7108   -2.5202 C   0  0  0  0  0  0  0  0  0  0  0  0
   29.5458   12.7123   -2.5425 C   0  0  0  0  0  0  0  0  0  0  0  0
   29.8077   13.8849   -3.2116 C   0  0  0  0  0  0  0  0  0  0  0  0
   31.0330   14.0800   -3.8611 C   0  0  0  0  0  0  0  0  0  0  0  0
   31.9467   13.1068   -3.8540 C   0  0  0  0  0  0  0  0  0  0  0  0
   31.6957   11.9367   -3.1548 C   0  0  0  0  0  0  0  0  0  0  0  0
   28.4031   12.4210   -1.8227 O   0  0  0  0  0  0  0  0  0  0  0  0
   27.1858   12.2583   -2.5499 C   0  0  0  0  0  0  0  0  0  0  0  0
   33.2141   13.0196   -4.4307 O   0  0  0  0  0  0  0  0  0  0  0  0
   33.1298   12.4117   -5.7212 C   0  0  0  0  0  0  0  0  0  0  0  0
  1  2  2  0  0  0
  1 13  1  0  0  0
  2  3  1  0  0  0
  2  4  1  0  0  0
  4  5  2  0  0  0
  5  6  1  0  0  0
  5  7  1  0  0  0
  7  8  1  0  0  0
  7 13  2  0  0  0
  8  9  1  0  0  0
  8 10  2  0  0  0
 10 11  1  0  0  0
 10 18  1  0  0  0
 11 12  2  0  0  0
 12 13  1  0  0  0
 18 19  1  0  0  0
 19 20  2  0  0  0
 19 24  1  0  0  0
 20 25  1  0  0  0
 20 21  1  0  0  0
 25 26  1  0  0  0
 21 22  2  0  0  0
 22 23  1  0  0  0
 23 27  1  0  0  0
 23 24  2  0  0  0
 27 28  1  0  0  0
  3 14  1  0  0  0
  3 15  1  0  0  0
  6 16  1  0  0  0
  6 17  1  0  0  0
M  END
> <minimizedAffinity>
-9.04914

$$$$
1U71_MXA_A_187


 28 30  0  0  0  0  0  0  0  0999 V2000
   32.4727   11.3723   -3.7795 N   0  0  0  0  0  0  0  0  0  0  0  0
   32.6423   12.2885   -4.6935 C   0  0  0  0  0  0  0  0  0  0  0  0
   33.5386   12.0340   -5.6643 N   0  0  0  0  0  0  0  0  0  0  0  0
   31.9313   13.4468   -4.7702 N   0  0  0  0  0  0  0  0  0  0  0  0
   31.0358   13.7195   -3.8889 C   0  0  0  0  0  0  0  0  0  0  0  0
   30.4580   14.9118   -4.1055 N   0  0  0  0  0  0  0  0  0  0  0  0
   30.7884   12.8301   -2.7783 C   0  0  0  0  0  0  0  0  0  0  0  0
   29.8941   12.9803   -1.7101 C   0  0  0  0  0  0  0  0  0  0  0  0
   28.9844   14.1826   -1.5175 C   0  0  0  0  0  0  0  0  0  0  0  0
   29.8272   11.9678   -0.7624 C   0  0  0  0  0  0  0  0  0  0  0  0
   30.6757   10.8588   -0.9084 C   0  0  0  0  0  0  0  0  0  0  0  0
   31.5236   10.6659   -1.8810 N   0  0  0  0  0  0  0  0  0  0  0  0
   31.5797   11.6328   -2.8134 C   0  0  0  0  0  0  0  0  0  0  0  0
   34.0695   11.2053   -5.6392 H   0  0  0  0  0  0  0  0  0  0  0  0
   33.6634   12.6764   -6.3998 H   0  0  0  0  0  0  0  0  0  0  0  0
   30.7016   15.4398   -4.9000 H   0  0  0  0  0  0  0  0  0  0  0  0
   29.7908   15.2582   -3.4699 H   0  0  0  0  0  0  0  0  0  0  0  0
   28.9606   12.0327    0.4568 C   0  0  0  0  0  0  0  0  0  0  0  0
   28.9410   10.9190    1.4744 C   0  0  0  0  0  0  0  0  0  0  0  0
   28.1522    9.7868    1.3165 C   0  0  0  0  0  0  0  0  0  0  0  0
   28.2094    8.7875    2.2596 C   0  0  0  0  0  0  0  0  0  0  0  0
   29.0578    8.8976    3.3684 C   0  0  0  0  0  0  0  0  0  0  0  0
   29.7991    9.9965    3.5265 C   0  0  0  0  0  0  0  0  0  0  0  0
   29.7646   10.9907    2.5613 C   0  0  0  0  0  0  0  0  0  0  0  0
   27.3996    9.7736    0.1579 O   0  0  0  0  0  0  0  0  0  0  0  0
   27.7281    8.8012   -0.8339 C   0  0  0  0  0  0  0  0  0  0  0  0
   30.6912   10.3778    4.5291 O   0  0  0  0  0  0  0  0  0  0  0  0
   30.7243    9.3920    5.5631 C   0  0  0  0  0  0  0  0  0  0  0  0
  1  2  2  0  0  0
  1 13  1  0  0  0
  2  3  1  0  0  0
  2  4  1  0  0  0
  4  5  2  0  0  0
  5  6  1  0  0  0
  5  7  1  0  0  0
  7  8  1  0  0  0
  7 13  2  0  0  0
  8  9  1  0  0  0
  8 10  2  0  0  0
 10 11  1  0  0  0
 10 18  1  0  0  0
 11 12  2  0  0  0
 12 13  1  0  0  0
 18 19  1  0  0  0
 19 20  2  0  0  0
 19 24  1  0  0  0
 20 25  1  0  0  0
 20 21  1  0  0  0
 25 26  1  0  0  0
 21 22  2  0  0  0
 22 23  1  0  0  0
 23 27  1  0  0  0
 23 24  2  0  0  0
 27 28  1  0  0  0
  3 14  1  0  0  0
  3 15  1  0  0  0
  6 16  1  0  0  0
  6 17  1  0  0  0
M  END
> <minimizedAffinity>
-8.87599

$$$$
1U71_MXA_A_187


 28 30  0  0  0  0  0  0  0  0999 V2000
   26.9814   12.0293   -3.5843 N   0  0  0  0  0  0  0  0  0  0  0  0
   27.5172   12.6184   -4.6184 C   0  0  0  0  0  0  0  0  0  0  0  0
   26.9247   12.4309   -5.8118 N   0  0  0  0  0  0  0  0  0  0  0  0
   28.5870   13.4584   -4.5629 N   0  0  0  0  0  0  0  0  0  0  0  0
   29.1652   13.7014   -3.4406 C   0  0  0  0  0  0  0  0  0  0  0  0
   30.2157   14.5257   -3.5797 N   0  0  0  0  0  0  0  0  0  0  0  0
   28.7245   13.0638   -2.2220 C   0  0  0  0  0  0  0  0  0  0  0  0
   29.2532   13.1715   -0.9289 C   0  0  0  0  0  0  0  0  0  0  0  0
   30.4617   14.0188   -0.5658 C   0  0  0  0  0  0  0  0  0  0  0  0
   28.6373   12.4622    0.0936 C   0  0  0  0  0  0  0  0  0  0  0  0
   27.5336   11.6547   -0.2241 C   0  0  0  0  0  0  0  0  0  0  0  0
   26.9990   11.5188   -1.4064 N   0  0  0  0  0  0  0  0  0  0  0  0
   27.5778   12.2182   -2.3980 C   0  0  0  0  0  0  0  0  0  0  0  0
   26.1486   11.8299   -5.8871 H   0  0  0  0  0  0  0  0  0  0  0  0
   27.2673   12.8947   -6.6098 H   0  0  0  0  0  0  0  0  0  0  0  0
   30.4285   14.9074   -4.4618 H   0  0  0  0  0  0  0  0  0  0  0  0
   30.7734   14.7484   -2.7995 H   0  0  0  0  0  0  0  0  0  0  0  0
   29.1386   12.4424    1.5042 C   0  0  0  0  0  0  0  0  0  0  0  0
   30.0475   11.3477    2.0060 C   0  0  0  0  0  0  0  0  0  0  0  0
   29.5609   10.2277    2.6676 C   0  0  0  0  0  0  0  0  0  0  0  0
   30.4370    9.2447    3.0646 C   0  0  0  0  0  0  0  0  0  0  0  0
   31.8078    9.3590    2.8019 C   0  0  0  0  0  0  0  0  0  0  0  0
   32.2735   10.4467    2.1836 C   0  0  0  0  0  0  0  0  0  0  0  0
   31.3880   11.4237    1.7566 C   0  0  0  0  0  0  0  0  0  0  0  0
   28.1879   10.2076    2.8200 O   0  0  0  0  0  0  0  0  0  0  0  0
   27.5072    8.9872    2.5293 C   0  0  0  0  0  0  0  0  0  0  0  0
   33.5670   10.8294    1.8275 O   0  0  0  0  0  0  0  0  0  0  0  0
   33.8009   12.1890    2.1999 C   0  0  0  0  0  0  0  0  0  0  0  0
  1  2  2  0  0  0
  1 13  1  0  0  0
  2  3  1  0  0  0
  2  4  1  0  0  0
  4  5  2  0  0  0
  5  6  1  0  0  0
  5  7  1  0  0  0
  7  8  1  0  0  0
  7 13  2  0  0  0
  8  9  1  0  0  0
  8 10  2  0  0  0
 10 11  1  0  0  0
 10 18  1  0  0  0
 11 12  2  0  0  0
 12 13  1  0  0  0
 18 19  1  0  0  0
 19 20  2  0  0  0
 19 24  1  0  0  0
 20 25  1  0  0  0
 20 21  1  0  0  0
 25 26  1  0  0  0
 21 22  2  0  0  0
 22 23  1  0  0  0
 23 27  1  0  0  0
 23 24  2  0  0  0
 27 28  1  0  0  0
  3 14  1  0  0  0
  3 15  1  0  0  0
  6 16  1  0  0  0
  6 17  1  0  0  0
M  END
> <minimizedAffinity>
-8.86427

$$$$
1U71_MXA_A_187


 28 30  0  0  0  0  0  0  0  0999 V2000
   27.1698   12.0209   -3.4919 N   0  0  0  0  0  0  0  0  0  0  0  0
   27.6233   12.5979   -4.5713 C   0  0  0  0  0  0  0  0  0  0  0  0
   26.9245   12.4193   -5.7072 N   0  0  0  0  0  0  0  0  0  0  0  0
   28.7092   13.4178   -4.6132 N   0  0  0  0  0  0  0  0  0  0  0  0
   29.3885   13.6520   -3.5471 C   0  0  0  0  0  0  0  0  0  0  0  0
   30.4378   14.4561   -3.7810 N   0  0  0  0  0  0  0  0  0  0  0  0
   29.0451   13.0251   -2.2922 C   0  0  0  0  0  0  0  0  0  0  0  0
   29.6876   13.1252   -1.0510 C   0  0  0  0  0  0  0  0  0  0  0  0
   30.9389   13.9504   -0.7987 C   0  0  0  0  0  0  0  0  0  0  0  0
   29.1511   12.4297    0.0242 C   0  0  0  0  0  0  0  0  0  0  0  0
   28.0089   11.6424   -0.1921 C   0  0  0  0  0  0  0  0  0  0  0  0
   27.3697   11.5144   -1.3223 N   0  0  0  0  0  0  0  0  0  0  0  0
   27.8719   12.2009   -2.3635 C   0  0  0  0  0  0  0  0  0  0  0  0
   26.1338   11.8329   -5.7117 H   0  0  0  0  0  0  0  0  0  0  0  0
   27.2041   12.8751   -6.5339 H   0  0  0  0  0  0  0  0  0  0  0  0
   30.5791   14.8321   -4.6799 H   0  0  0  0  0  0  0  0  0  0  0  0
   31.0660   14.6697   -3.0538 H   0  0  0  0  0  0  0  0  0  0  0  0
   29.7743   12.4030    1.3853 C   0  0  0  0  0  0  0  0  0  0  0  0
   30.1977   11.1098    2.0370 C   0  0  0  0  0  0  0  0  0  0  0  0
   31.4908   10.6150    1.9271 C   0  0  0  0  0  0  0  0  0  0  0  0
   31.8256    9.4511    2.5786 C   0  0  0  0  0  0  0  0  0  0  0  0
   30.8808    8.7679    3.3544 C   0  0  0  0  0  0  0  0  0  0  0  0
   29.6338    9.2364    3.4408 C   0  0  0  0  0  0  0  0  0  0  0  0
   29.3034   10.4251    2.8092 C   0  0  0  0  0  0  0  0  0  0  0  0
   32.3417   11.4054    1.1787 O   0  0  0  0  0  0  0  0  0  0  0  0
   33.4587   11.9920    1.8459 C   0  0  0  0  0  0  0  0  0  0  0  0
   28.5054    8.7547    4.1050 O   0  0  0  0  0  0  0  0  0  0  0  0
   28.6980    7.3896    4.4813 C   0  0  0  0  0  0  0  0  0  0  0  0
  1  2  2  0  0  0
  1 13  1  0  0  0
  2  3  1  0  0  0
  2  4  1  0  0  0
  4  5  2  0  0  0
  5  6  1  0  0  0
  5  7  1  0  0  0
  7  8  1  0  0  0
  7 13  2  0  0  0
  8  9  1  0  0  0
  8 10  2  0  0  0
 10 11  1  0  0  0
 10 18  1  0  0  0
 11 12  2  0  0  0
 12 13  1  0  0  0
 18 19  1  0  0  0
 19 20  2  0  0  0
 19 24  1  0  0  0
 20 25  1  0  0  0
 20 21  1  0  0  0
 25 26  1  0  0  0
 21 22  2  0  0  0
 22 23  1  0  0  0
 23 27  1  0  0  0
 23 24  2  0  0  0
 27 28  1  0  0  0
  3 14  1  0  0  0
  3 15  1  0  0  0
  6 16  1  0  0  0
  6 17  1  0  0  0
M  END
> <minimizedAffinity>
-8.71171

$$$$
1U71_MXA_A_187


 28 30  0  0  0  0  0  0  0  0999 V2000
   32.1725   11.2382   -3.8777 N   0  0  0  0  0  0  0  0  0  0  0  0
   32.5095   12.3929   -4.3842 C   0  0  0  0  0  0  0  0  0  0  0  0
   32.7387   12.4431   -5.7091 N   0  0  0  0  0  0  0  0  0  0  0  0
   32.5787   13.5564   -3.6809 N   0  0  0  0  0  0  0  0  0  0  0  0
   32.3308   13.5693   -2.4194 C   0  0  0  0  0  0  0  0  0  0  0  0
   32.4752   14.7932   -1.8869 N   0  0  0  0  0  0  0  0  0  0  0  0
   32.0132   12.3520   -1.7102 C   0  0  0  0  0  0  0  0  0  0  0  0
   31.7598   12.1671   -0.3446 C   0  0  0  0  0  0  0  0  0  0  0  0
   31.7890   13.2802    0.6901 C   0  0  0  0  0  0  0  0  0  0  0  0
   31.4594   10.8866    0.1002 C   0  0  0  0  0  0  0  0  0  0  0  0
   31.4500    9.8395   -0.8351 C   0  0  0  0  0  0  0  0  0  0  0  0
   31.6756    9.9537   -2.1150 N   0  0  0  0  0  0  0  0  0  0  0  0
   31.9476   11.1941   -2.5563 C   0  0  0  0  0  0  0  0  0  0  0  0
   32.6965   11.6200   -6.2475 H   0  0  0  0  0  0  0  0  0  0  0  0
   32.9486   13.3030   -6.1401 H   0  0  0  0  0  0  0  0  0  0  0  0
   32.6936   15.5591   -2.4656 H   0  0  0  0  0  0  0  0  0  0  0  0
   32.3627   14.9247   -0.9177 H   0  0  0  0  0  0  0  0  0  0  0  0
   31.2295   10.5441    1.5395 C   0  0  0  0  0  0  0  0  0  0  0  0
   30.0221    9.7552    1.9824 C   0  0  0  0  0  0  0  0  0  0  0  0
   29.8752    9.2973    3.2854 C   0  0  0  0  0  0  0  0  0  0  0  0
   28.7321    8.6187    3.6374 C   0  0  0  0  0  0  0  0  0  0  0  0
   27.7163    8.3933    2.7001 C   0  0  0  0  0  0  0  0  0  0  0  0
   27.8706    8.8176    1.4438 C   0  0  0  0  0  0  0  0  0  0  0  0
   29.0089    9.5277    1.0957 C   0  0  0  0  0  0  0  0  0  0  0  0
   30.9203    9.6274    4.1266 O   0  0  0  0  0  0  0  0  0  0  0  0
   30.7197    9.4582    5.5296 C   0  0  0  0  0  0  0  0  0  0  0  0
   27.0513    8.7076    0.3199 O   0  0  0  0  0  0  0  0  0  0  0  0
   27.7541    9.1353   -0.8485 C   0  0  0  0  0  0  0  0  0  0  0  0
  1  2  2  0  0  0
  1 13  1  0  0  0
  2  3  1  0  0  0
  2  4  1  0  0  0
  4  5  2  0  0  0
  5  6  1  0  0  0
  5  7  1  0  0  0
  7  8  1  0  0  0
  7 13  2  0  0  0
  8  9  1  0  0  0
  8 10  2  0  0  0
 10 11  1  0  0  0
 10 18  1  0  0  0
 11 12  2  0  0  0
 12 13  1  0  0  0
 18 19  1  0  0  0
 19 20  2  0  0  0
 19 24  1  0  0  0
 20 25  1  0  0  0
 20 21  1  0  0  0
 25 26  1  0  0  0
 21 22  2  0  0  0
 22 23  1  0  0  0
 23 27  1  0  0  0
 23 24  2  0  0  0
 27 28  1  0  0  0
  3 14  1  0  0  0
  3 15  1  0  0  0
  6 16  1  0  0  0
  6 17  1  0  0  0
M  END
> <minimizedAffinity>
-8.66997

$$$$
1U71_MXA_A_187


 28 30  0  0  0  0  0  0  0  0999 V2000
   28.2615    8.9274    3.6607 N   0  0  0  0  0  0  0  0  0  0  0  0
   29.1610    8.4607    4.4833 C   0  0  0  0  0  0  0  0  0  0  0  0
   28.7293    7.9854    5.6657 N   0  0  0  0  0  0  0  0  0  0  0  0
   30.4892    8.3599    4.2024 N   0  0  0  0  0  0  0  0  0  0  0  0
   30.9469    8.7640    3.0709 C   0  0  0  0  0  0  0  0  0  0  0  0
   32.2779    8.6145    2.9800 N   0  0  0  0  0  0  0  0  0  0  0  0
   30.0777    9.3687    2.0888 C   0  0  0  0  0  0  0  0  0  0  0  0
   30.4006    9.9012    0.8336 C   0  0  0  0  0  0  0  0  0  0  0  0
   31.8073    9.9487    0.2598 C   0  0  0  0  0  0  0  0  0  0  0  0
   29.3737   10.4197    0.0562 C   0  0  0  0  0  0  0  0  0  0  0  0
   28.0699   10.4073    0.5770 C   0  0  0  0  0  0  0  0  0  0  0  0
   27.7121    9.9237    1.7347 N   0  0  0  0  0  0  0  0  0  0  0  0
   28.6982    9.4018    2.4847 C   0  0  0  0  0  0  0  0  0  0  0  0
   27.7749    8.0425    5.9004 H   0  0  0  0  0  0  0  0  0  0  0  0
   29.3679    7.5805    6.2962 H   0  0  0  0  0  0  0  0  0  0  0  0
   32.7763    8.1853    3.7126 H   0  0  0  0  0  0  0  0  0  0  0  0
   32.7557    8.9340    2.1807 H   0  0  0  0  0  0  0  0  0  0  0  0
   29.5920   11.0719   -1.2736 C   0  0  0  0  0  0  0  0  0  0  0  0
   29.8498   12.5534   -1.3961 C   0  0  0  0  0  0  0  0  0  0  0  0
   29.7051   13.2323   -2.5991 C   0  0  0  0  0  0  0  0  0  0  0  0
   29.9152   14.5908   -2.6368 C   0  0  0  0  0  0  0  0  0  0  0  0
   30.2646   15.2935   -1.4769 C   0  0  0  0  0  0  0  0  0  0  0  0
   30.4222   14.6338   -0.3271 C   0  0  0  0  0  0  0  0  0  0  0  0
   30.1814   13.2696   -0.2817 C   0  0  0  0  0  0  0  0  0  0  0  0
   29.3073   12.4381   -3.6573 O   0  0  0  0  0  0  0  0  0  0  0  0
   28.0472   12.7246   -4.2632 C   0  0  0  0  0  0  0  0  0  0  0  0
   30.7868   15.0660    0.9483 O   0  0  0  0  0  0  0  0  0  0  0  0
   30.3412   14.1317    1.9335 C   0  0  0  0  0  0  0  0  0  0  0  0
  1  2  2  0  0  0
  1 13  1  0  0  0
  2  3  1  0  0  0
  2  4  1  0  0  0
  4  5  2  0  0  0
  5  6  1  0  0  0
  5  7  1  0  0  0
  7  8  1  0  0  0
  7 13  2  0  0  0
  8  9  1  0  0  0
  8 10  2  0  0  0
 10 11  1  0  0  0
 10 18  1  0  0  0
 11 12  2  0  0  0
 12 13  1  0  0  0
 18 19  1  0  0  0
 19 20  2  0  0  0
 19 24  1  0  0  0
 20 25  1  0  0  0
 20 21  1  0  0  0
 25 26  1  0  0  0
 21 22  2  0  0  0
 22 23  1  0  0  0
 23 27  1  0  0  0
 23 24  2  0  0  0
 27 28  1  0  0  0
  3 14  1  0  0  0
  3 15  1  0  0  0
  6 16  1  0  0  0
  6 17  1  0  0  0
M  END
> <minimizedAffinity>
-8.62947

$$$$
1U71_MXA_A_187


 28 30  0  0  0  0  0  0  0  0999 V2000
   35.0804   12.4214    1.7536 N   0  0  0  0  0  0  0  0  0  0  0  0
   35.5929   13.6068    1.5647 C   0  0  0  0  0  0  0  0  0  0  0  0
   36.9336   13.6957    1.4922 N   0  0  0  0  0  0  0  0  0  0  0  0
   34.8674   14.7420    1.3695 N   0  0  0  0  0  0  0  0  0  0  0  0
   33.5825   14.7040    1.3905 C   0  0  0  0  0  0  0  0  0  0  0  0
   33.0365   15.9170    1.2093 N   0  0  0  0  0  0  0  0  0  0  0  0
   32.8779   13.4723    1.6594 C   0  0  0  0  0  0  0  0  0  0  0  0
   31.4985   13.2498    1.7640 C   0  0  0  0  0  0  0  0  0  0  0  0
   30.4427   14.3333    1.6159 C   0  0  0  0  0  0  0  0  0  0  0  0
   31.0591   11.9573    2.0174 C   0  0  0  0  0  0  0  0  0  0  0  0
   32.0186   10.9455    2.1810 C   0  0  0  0  0  0  0  0  0  0  0  0
   33.3116   11.0945    2.0922 N   0  0  0  0  0  0  0  0  0  0  0  0
   33.7438   12.3397    1.8272 C   0  0  0  0  0  0  0  0  0  0  0  0
   37.4882   12.8938    1.6283 H   0  0  0  0  0  0  0  0  0  0  0  0
   37.3599   14.5628    1.3030 H   0  0  0  0  0  0  0  0  0  0  0  0
   33.6131   16.6947    1.0306 H   0  0  0  0  0  0  0  0  0  0  0  0
   32.0594   16.0288    1.2551 H   0  0  0  0  0  0  0  0  0  0  0  0
   29.6190   11.5972    2.2125 C   0  0  0  0  0  0  0  0  0  0  0  0
   28.9394   10.5586    1.3547 C   0  0  0  0  0  0  0  0  0  0  0  0
   28.2515    9.4830    1.9013 C   0  0  0  0  0  0  0  0  0  0  0  0
   27.6183    8.5923    1.0665 C   0  0  0  0  0  0  0  0  0  0  0  0
   27.6543    8.7640   -0.3229 C   0  0  0  0  0  0  0  0  0  0  0  0
   28.3336    9.7879   -0.8447 C   0  0  0  0  0  0  0  0  0  0  0  0
   28.9468   10.7028   -0.0032 C   0  0  0  0  0  0  0  0  0  0  0  0
   28.2452    9.4531    3.2826 O   0  0  0  0  0  0  0  0  0  0  0  0
   28.5855    8.2221    3.9198 C   0  0  0  0  0  0  0  0  0  0  0  0
   28.5570   10.1764   -2.1659 O   0  0  0  0  0  0  0  0  0  0  0  0
   29.5988   11.1527   -2.2252 C   0  0  0  0  0  0  0  0  0  0  0  0
  1  2  2  0  0  0
  1 13  1  0  0  0
  2  3  1  0  0  0
  2  4  1  0  0  0
  4  5  2  0  0  0
  5  6  1  0  0  0
  5  7  1  0  0  0
  7  8  1  0  0  0
  7 13  2  0  0  0
  8  9  1  0  0  0
  8 10  2  0  0  0
 10 11  1  0  0  0
 10 18  1  0  0  0
 11 12  2  0  0  0
 12 13  1  0  0  0
 18 19  1  0  0  0
 19 20  2  0  0  0
 19 24  1  0  0  0
 20 25  1  0  0  0
 20 21  1  0  0  0
 25 26  1  0  0  0
 21 22  2  0  0  0
 22 23  1  0  0  0
 23 27  1  0  0  0
 23 24  2  0  0  0
 27 28  1  0  0  0
  3 14  1  0  0  0
  3 15  1  0  0  0
  6 16  1  0  0  0
  6 17  1  0  0  0
M  END
> <minimizedAffinity>
-8.40208

$$$$
1U71_MXA_A_187


 28 30  0  0  0  0  0  0  0  0999 V2000
   29.7211   10.0679    3.6554 N   0  0  0  0  0  0  0  0  0  0  0  0
   29.2107    8.8680    3.5992 C   0  0  0  0  0  0  0  0  0  0  0  0
   29.4732    8.0364    4.6240 N   0  0  0  0  0  0  0  0  0  0  0  0
   28.3811    8.4246    2.6152 N   0  0  0  0  0  0  0  0  0  0  0  0
   28.0679    9.1934    1.6334 C   0  0  0  0  0  0  0  0  0  0  0  0
   27.2673    8.5819    0.7461 N   0  0  0  0  0  0  0  0  0  0  0  0
   28.6151   10.5257    1.5267 C   0  0  0  0  0  0  0  0  0  0  0  0
   28.4246   11.4794    0.5179 C   0  0  0  0  0  0  0  0  0  0  0  0
   27.5681   11.2589   -0.7182 C   0  0  0  0  0  0  0  0  0  0  0  0
   29.0547   12.7096    0.6499 C   0  0  0  0  0  0  0  0  0  0  0  0
   29.8696   12.9260    1.7725 C   0  0  0  0  0  0  0  0  0  0  0  0
   30.0804   12.0775    2.7409 N   0  0  0  0  0  0  0  0  0  0  0  0
   29.4577   10.8912    2.6300 C   0  0  0  0  0  0  0  0  0  0  0  0
   30.0691    8.3257    5.3523 H   0  0  0  0  0  0  0  0  0  0  0  0
   29.0694    7.1388    4.6455 H   0  0  0  0  0  0  0  0  0  0  0  0
   26.9496    7.6662    0.9190 H   0  0  0  0  0  0  0  0  0  0  0  0
   26.9977    9.0492   -0.0774 H   0  0  0  0  0  0  0  0  0  0  0  0
   28.9830   13.7901   -0.3841 C   0  0  0  0  0  0  0  0  0  0  0  0
   30.0426   13.9395   -1.4477 C   0  0  0  0  0  0  0  0  0  0  0  0
   29.7617   13.7812   -2.7987 C   0  0  0  0  0  0  0  0  0  0  0  0
   30.7624   13.9707   -3.7228 C   0  0  0  0  0  0  0  0  0  0  0  0
   32.0541   14.3277   -3.3159 C   0  0  0  0  0  0  0  0  0  0  0  0
   32.3243   14.4590   -2.0152 C   0  0  0  0  0  0  0  0  0  0  0  0
   31.3094   14.2977   -1.0851 C   0  0  0  0  0  0  0  0  0  0  0  0
   28.4418   13.4807   -3.0750 O   0  0  0  0  0  0  0  0  0  0  0  0
   28.1756   12.6312   -4.1906 C   0  0  0  0  0  0  0  0  0  0  0  0
   33.5042   14.7715   -1.3395 O   0  0  0  0  0  0  0  0  0  0  0  0
   33.3768   14.4591    0.0491 C   0  0  0  0  0  0  0  0  0  0  0  0
  1  2  2  0  0  0
  1 13  1  0  0  0
  2  3  1  0  0  0
  2  4  1  0  0  0
  4  5  2  0  0  0
  5  6  1  0  0  0
  5  7  1  0  0  0
  7  8  1  0  0  0
  7 13  2  0  0  0
  8  9  1  0  0  0
  8 10  2  0  0  0
 10 11  1  0  0  0
 10 18  1  0  0  0
 11 12  2  0  0  0
 12 13  1  0  0  0
 18 19  1  0  0  0
 19 20  2  0  0  0
 19 24  1  0  0  0
 20 25  1  0  0  0
 20 21  1  0  0  0
 25 26  1  0  0  0
 21 22  2  0  0  0
 22 23  1  0  0  0
 23 27  1  0  0  0
 23 24  2  0  0  0
 27 28  1  0  0  0
  3 14  1  0  0  0
  3 15  1  0  0  0
  6 16  1  0  0  0
  6 17  1  0  0  0
M  END
> <minimizedAffinity>
-8.37926

$$$$
