3PE2_E1B_A_338


 28 31  0  0  0  0  0  0  0  0999 V2000
   23.4652  -27.6853   10.2934 N   0  0  0  0  0  0  0  0  0  0  0  0
   23.5070  -26.7109   11.2342 C   0  0  0  0  0  0  0  0  0  0  0  0
   23.3741  -26.9970   12.5421 N   0  0  0  0  0  0  0  0  0  0  0  0
   23.1960  -28.3032   12.9661 C   0  0  0  0  0  0  0  0  0  0  0  0
   23.1522  -29.3231   12.0341 C   0  0  0  0  0  0  0  0  0  0  0  0
   23.2969  -28.9817   10.6533 C   0  0  0  0  0  0  0  0  0  0  0  0
   22.7309  -33.0874   12.0988 C   0  0  0  0  0  0  0  0  0  0  0  0
   22.9138  -31.7907   11.6038 C   0  0  0  0  0  0  0  0  0  0  0  0
   22.6525  -32.2818   14.3790 C   0  0  0  0  0  0  0  0  0  0  0  0
   22.8847  -29.9093   14.7535 N   0  0  0  0  0  0  0  0  0  0  0  0
   22.6100  -33.3454   13.4797 C   0  0  0  0  0  0  0  0  0  0  0  0
   23.0453  -28.6475   14.3481 C   0  0  0  0  0  0  0  0  0  0  0  0
   22.8364  -30.9616   13.8711 C   0  0  0  0  0  0  0  0  0  0  0  0
   22.9551  -30.7030   12.5225 C   0  0  0  0  0  0  0  0  0  0  0  0
   22.5674  -34.8042   15.2236 O   0  0  0  0  0  0  0  0  0  0  0  0
   22.0174  -35.4774   13.0360 O   0  0  0  0  0  0  0  0  0  0  0  0
   22.4009  -34.7415   13.9779 C   0  0  0  0  0  0  0  0  0  0  0  0
   22.8835  -34.0569   15.6922 H   0  0  0  0  0  0  0  0  0  0  0  0
   23.0333  -27.7236   15.4155 N   0  0  0  0  0  0  0  0  0  0  0  0
   23.3535  -26.8663   15.0524 H   0  0  0  0  0  0  0  0  0  0  0  0
   22.0014  -26.2562   18.6593 C   0  0  0  0  0  0  0  0  0  0  0  0
   22.2817  -27.3277   19.4902 C   0  0  0  0  0  0  0  0  0  0  0  0
   22.2347  -26.3376   17.2942 C   0  0  0  0  0  0  0  0  0  0  0  0
   23.0454  -28.5783   17.6039 C   0  0  0  0  0  0  0  0  0  0  0  0
   22.8150  -28.4895   18.9556 C   0  0  0  0  0  0  0  0  0  0  0  0
   22.7572  -27.5087   16.7803 C   0  0  0  0  0  0  0  0  0  0  0  0
   23.4015  -30.6253   20.4739 C   0  0  0  0  0  0  0  0  0  0  0  0
   23.1389  -29.6697   19.7927 C   0  0  0  0  0  0  0  0  0  0  0  0
  1  6  2  0  0  0
  1  2  1  0  0  0
  2  3  2  0  0  0
  3  4  1  0  0  0
  5  4  1  0  0  0
  4 12  2  0  0  0
  6  5  1  0  0  0
  5 14  2  0  0  0
 28 27  3  0  0  0
 17 15  1  0  0  0
 16 17  2  0  0  0
 25 28  1  0  0  0
 23 21  2  0  0  0
 21 22  1  0  0  0
 25 22  2  0  0  0
 26 23  1  0  0  0
  8  7  2  0  0  0
  7 11  1  0  0  0
  8 14  1  0  0  0
 26 24  2  0  0  0
 24 25  1  0  0  0
 11  9  2  0  0  0
 13  9  1  0  0  0
 13 10  2  0  0  0
 12 10  1  0  0  0
 12 19  1  0  0  0
 19 26  1  0  0  0
 11 17  1  0  0  0
 14 13  1  0  0  0
 15 18  1  0  0  0
 19 20  1  0  0  0
M  END
> <minimizedAffinity>
-10.71524

$$$$
3PE2_E1B_A_338


 28 31  0  0  0  0  0  0  0  0999 V2000
   23.4935  -27.6533   10.3482 N   0  0  0  0  0  0  0  0  0  0  0  0
   23.5276  -26.7138   11.3241 C   0  0  0  0  0  0  0  0  0  0  0  0
   23.3755  -27.0461   12.6189 N   0  0  0  0  0  0  0  0  0  0  0  0
   23.1850  -28.3658   12.9930 C   0  0  0  0  0  0  0  0  0  0  0  0
   23.1486  -29.3511   12.0241 C   0  0  0  0  0  0  0  0  0  0  0  0
   23.3138  -28.9609   10.6586 C   0  0  0  0  0  0  0  0  0  0  0  0
   22.7072  -33.1128   11.9470 C   0  0  0  0  0  0  0  0  0  0  0  0
   22.9034  -31.8002   11.5018 C   0  0  0  0  0  0  0  0  0  0  0  0
   22.6020  -32.3897   14.2536 C   0  0  0  0  0  0  0  0  0  0  0  0
   22.8412  -30.0336   14.7167 N   0  0  0  0  0  0  0  0  0  0  0  0
   22.5662  -33.4199   13.3159 C   0  0  0  0  0  0  0  0  0  0  0  0
   23.0137  -28.7589   14.3595 C   0  0  0  0  0  0  0  0  0  0  0  0
   22.7996  -31.0530   13.7963 C   0  0  0  0  0  0  0  0  0  0  0  0
   22.9379  -30.7466   12.4596 C   0  0  0  0  0  0  0  0  0  0  0  0
   21.9323  -35.5438   12.8078 O   0  0  0  0  0  0  0  0  0  0  0  0
   22.7161  -34.9678   14.9515 O   0  0  0  0  0  0  0  0  0  0  0  0
   22.3433  -34.8318   13.7605 C   0  0  0  0  0  0  0  0  0  0  0  0
   21.7167  -35.1481   11.9863 H   0  0  0  0  0  0  0  0  0  0  0  0
   22.9920  -27.8741   15.4593 N   0  0  0  0  0  0  0  0  0  0  0  0
   23.1707  -26.9739   15.1029 H   0  0  0  0  0  0  0  0  0  0  0  0
   23.1353  -28.3296   19.1352 C   0  0  0  0  0  0  0  0  0  0  0  0
   22.3687  -27.2451   19.5263 C   0  0  0  0  0  0  0  0  0  0  0  0
   23.3719  -28.5831   17.7919 C   0  0  0  0  0  0  0  0  0  0  0  0
   22.0519  -26.6545   17.2337 C   0  0  0  0  0  0  0  0  0  0  0  0
   21.8189  -26.4113   18.5658 C   0  0  0  0  0  0  0  0  0  0  0  0
   22.8229  -27.7336   16.8510 C   0  0  0  0  0  0  0  0  0  0  0  0
   20.3150  -24.2814   19.2079 C   0  0  0  0  0  0  0  0  0  0  0  0
   20.9873  -25.2361   18.9206 C   0  0  0  0  0  0  0  0  0  0  0  0
  1  6  2  0  0  0
  1  2  1  0  0  0
  2  3  2  0  0  0
  3  4  1  0  0  0
  5  4  1  0  0  0
  4 12  2  0  0  0
  6  5  1  0  0  0
  5 14  2  0  0  0
 28 27  3  0  0  0
 17 15  1  0  0  0
 16 17  2  0  0  0
 25 28  1  0  0  0
 23 21  2  0  0  0
 21 22  1  0  0  0
 25 22  2  0  0  0
 26 23  1  0  0  0
  8  7  2  0  0  0
  7 11  1  0  0  0
  8 14  1  0  0  0
 26 24  2  0  0  0
 24 25  1  0  0  0
 11  9  2  0  0  0
 13  9  1  0  0  0
 13 10  2  0  0  0
 12 10  1  0  0  0
 12 19  1  0  0  0
 19 26  1  0  0  0
 11 17  1  0  0  0
 14 13  1  0  0  0
 15 18  1  0  0  0
 19 20  1  0  0  0
M  END
> <minimizedAffinity>
-10.35301

$$$$
3PE2_E1B_A_338


 28 31  0  0  0  0  0  0  0  0999 V2000
   22.4181  -29.8362   21.0608 N   0  0  0  0  0  0  0  0  0  0  0  0
   22.3579  -31.1153   20.6174 C   0  0  0  0  0  0  0  0  0  0  0  0
   22.3280  -31.3976   19.3023 N   0  0  0  0  0  0  0  0  0  0  0  0
   22.3641  -30.3836   18.3599 C   0  0  0  0  0  0  0  0  0  0  0  0
   22.4293  -29.0671   18.7764 C   0  0  0  0  0  0  0  0  0  0  0  0
   22.4595  -28.8049   20.1815 C   0  0  0  0  0  0  0  0  0  0  0  0
   22.5721  -25.6647   17.1167 C   0  0  0  0  0  0  0  0  0  0  0  0
   22.5389  -26.6406   18.1198 C   0  0  0  0  0  0  0  0  0  0  0  0
   22.4786  -27.3462   15.3795 C   0  0  0  0  0  0  0  0  0  0  0  0
   22.3744  -29.6630   16.0465 N   0  0  0  0  0  0  0  0  0  0  0  0
   22.5531  -26.0045   15.7484 C   0  0  0  0  0  0  0  0  0  0  0  0
   22.3284  -30.6431   16.9519 C   0  0  0  0  0  0  0  0  0  0  0  0
   22.4424  -28.3380   16.4042 C   0  0  0  0  0  0  0  0  0  0  0  0
   22.4606  -28.0120   17.7433 C   0  0  0  0  0  0  0  0  0  0  0  0
   21.9691  -25.3140   13.6620 O   0  0  0  0  0  0  0  0  0  0  0  0
   23.1123  -23.8997   15.1568 O   0  0  0  0  0  0  0  0  0  0  0  0
   22.5752  -24.9377   14.6985 C   0  0  0  0  0  0  0  0  0  0  0  0
   21.6637  -26.1971   13.5925 H   0  0  0  0  0  0  0  0  0  0  0  0
   22.2283  -31.9243   16.3675 N   0  0  0  0  0  0  0  0  0  0  0  0
   21.9305  -32.5376   17.0777 H   0  0  0  0  0  0  0  0  0  0  0  0
   22.4027  -34.7139   13.9327 C   0  0  0  0  0  0  0  0  0  0  0  0
   22.6852  -33.9932   12.7849 C   0  0  0  0  0  0  0  0  0  0  0  0
   22.2419  -34.0713   15.1518 C   0  0  0  0  0  0  0  0  0  0  0  0
   22.6624  -31.9730   14.0590 C   0  0  0  0  0  0  0  0  0  0  0  0
   22.8237  -32.6163   12.8557 C   0  0  0  0  0  0  0  0  0  0  0  0
   22.3740  -32.6970   15.1984 C   0  0  0  0  0  0  0  0  0  0  0  0
   23.3729  -31.1174   10.6964 C   0  0  0  0  0  0  0  0  0  0  0  0
   23.1283  -31.7894   11.6633 C   0  0  0  0  0  0  0  0  0  0  0  0
  1  6  2  0  0  0
  1  2  1  0  0  0
  2  3  2  0  0  0
  3  4  1  0  0  0
  5  4  1  0  0  0
  4 12  2  0  0  0
  6  5  1  0  0  0
  5 14  2  0  0  0
 28 27  3  0  0  0
 17 15  1  0  0  0
 16 17  2  0  0  0
 25 28  1  0  0  0
 23 21  2  0  0  0
 21 22  1  0  0  0
 25 22  2  0  0  0
 26 23  1  0  0  0
  8  7  2  0  0  0
  7 11  1  0  0  0
  8 14  1  0  0  0
 26 24  2  0  0  0
 24 25  1  0  0  0
 11  9  2  0  0  0
 13  9  1  0  0  0
 13 10  2  0  0  0
 12 10  1  0  0  0
 12 19  1  0  0  0
 19 26  1  0  0  0
 11 17  1  0  0  0
 14 13  1  0  0  0
 15 18  1  0  0  0
 19 20  1  0  0  0
M  END
> <minimizedAffinity>
-10.22896

$$$$
3PE2_E1B_A_338


 28 31  0  0  0  0  0  0  0  0999 V2000
   22.6530  -25.4049   17.6836 N   0  0  0  0  0  0  0  0  0  0  0  0
   22.5791  -25.4423   16.3311 C   0  0  0  0  0  0  0  0  0  0  0  0
   22.4676  -26.6087   15.6699 N   0  0  0  0  0  0  0  0  0  0  0  0
   22.4189  -27.8099   16.3575 C   0  0  0  0  0  0  0  0  0  0  0  0
   22.4881  -27.8090   17.7380 C   0  0  0  0  0  0  0  0  0  0  0  0
   22.6061  -26.5509   18.4068 C   0  0  0  0  0  0  0  0  0  0  0  0
   22.4413  -30.4096   20.4924 C   0  0  0  0  0  0  0  0  0  0  0  0
   22.4954  -29.1621   19.8595 C   0  0  0  0  0  0  0  0  0  0  0  0
   22.2525  -31.5569   18.3706 C   0  0  0  0  0  0  0  0  0  0  0  0
   22.2487  -30.2270   16.3572 N   0  0  0  0  0  0  0  0  0  0  0  0
   22.3098  -31.6084   19.7620 C   0  0  0  0  0  0  0  0  0  0  0  0
   22.3063  -29.0720   15.6900 C   0  0  0  0  0  0  0  0  0  0  0  0
   22.3104  -30.2844   17.7286 C   0  0  0  0  0  0  0  0  0  0  0  0
   22.4389  -29.1092   18.4372 C   0  0  0  0  0  0  0  0  0  0  0  0
   21.1163  -33.4306   20.4146 O   0  0  0  0  0  0  0  0  0  0  0  0
   23.4226  -33.2442   20.8479 O   0  0  0  0  0  0  0  0  0  0  0  0
   22.2690  -32.9286   20.4664 C   0  0  0  0  0  0  0  0  0  0  0  0
   20.4052  -32.9354   20.0582 H   0  0  0  0  0  0  0  0  0  0  0  0
   22.2589  -29.2454   14.2897 N   0  0  0  0  0  0  0  0  0  0  0  0
   21.7544  -28.4822   13.9261 H   0  0  0  0  0  0  0  0  0  0  0  0
   23.4962  -30.4601   11.0134 C   0  0  0  0  0  0  0  0  0  0  0  0
   23.2913  -31.8185   11.1853 C   0  0  0  0  0  0  0  0  0  0  0  0
   23.1681  -29.5610   12.0177 C   0  0  0  0  0  0  0  0  0  0  0  0
   22.4145  -31.4006   13.3674 C   0  0  0  0  0  0  0  0  0  0  0  0
   22.7388  -32.2852   12.3672 C   0  0  0  0  0  0  0  0  0  0  0  0
   22.6278  -30.0481   13.1922 C   0  0  0  0  0  0  0  0  0  0  0  0
   22.2935  -34.8968   12.8052 C   0  0  0  0  0  0  0  0  0  0  0  0
   22.4924  -33.7269   12.6105 C   0  0  0  0  0  0  0  0  0  0  0  0
  1  6  2  0  0  0
  1  2  1  0  0  0
  2  3  2  0  0  0
  3  4  1  0  0  0
  5  4  1  0  0  0
  4 12  2  0  0  0
  6  5  1  0  0  0
  5 14  2  0  0  0
 28 27  3  0  0  0
 17 15  1  0  0  0
 16 17  2  0  0  0
 25 28  1  0  0  0
 23 21  2  0  0  0
 21 22  1  0  0  0
 25 22  2  0  0  0
 26 23  1  0  0  0
  8  7  2  0  0  0
  7 11  1  0  0  0
  8 14  1  0  0  0
 26 24  2  0  0  0
 24 25  1  0  0  0
 11  9  2  0  0  0
 13  9  1  0  0  0
 13 10  2  0  0  0
 12 10  1  0  0  0
 12 19  1  0  0  0
 19 26  1  0  0  0
 11 17  1  0  0  0
 14 13  1  0  0  0
 15 18  1  0  0  0
 19 20  1  0  0  0
M  END
> <minimizedAffinity>
-10.12794

$$$$
3PE2_E1B_A_338


 28 31  0  0  0  0  0  0  0  0999 V2000
   23.4335  -27.8985   10.3363 N   0  0  0  0  0  0  0  0  0  0  0  0
   23.3907  -26.7790   11.0986 C   0  0  0  0  0  0  0  0  0  0  0  0
   23.1951  -26.8466   12.4280 N   0  0  0  0  0  0  0  0  0  0  0  0
   23.0373  -28.0693   13.0587 C   0  0  0  0  0  0  0  0  0  0  0  0
   23.0792  -29.2322   12.3126 C   0  0  0  0  0  0  0  0  0  0  0  0
   23.2888  -29.1219   10.9026 C   0  0  0  0  0  0  0  0  0  0  0  0
   22.7804  -32.9465   12.9957 C   0  0  0  0  0  0  0  0  0  0  0  0
   22.9472  -31.7449   12.2971 C   0  0  0  0  0  0  0  0  0  0  0  0
   22.5490  -31.7733   15.0991 C   0  0  0  0  0  0  0  0  0  0  0  0
   22.6810  -29.3640   15.0757 N   0  0  0  0  0  0  0  0  0  0  0  0
   22.5918  -32.9737   14.3928 C   0  0  0  0  0  0  0  0  0  0  0  0
   22.8217  -28.1825   14.4700 C   0  0  0  0  0  0  0  0  0  0  0  0
   22.7168  -30.5506   14.3838 C   0  0  0  0  0  0  0  0  0  0  0  0
   22.9014  -30.5175   13.0183 C   0  0  0  0  0  0  0  0  0  0  0  0
   22.4240  -35.2398   14.3042 O   0  0  0  0  0  0  0  0  0  0  0  0
   22.3651  -34.0755   16.3493 O   0  0  0  0  0  0  0  0  0  0  0  0
   22.4021  -34.2737   15.1103 C   0  0  0  0  0  0  0  0  0  0  0  0
   22.4523  -35.0795   13.3815 H   0  0  0  0  0  0  0  0  0  0  0  0
   22.7199  -27.0937   15.3629 N   0  0  0  0  0  0  0  0  0  0  0  0
   23.2322  -27.3376   16.1675 H   0  0  0  0  0  0  0  0  0  0  0  0
   20.5723  -24.0728   15.4117 C   0  0  0  0  0  0  0  0  0  0  0  0
   21.3684  -23.2434   16.1831 C   0  0  0  0  0  0  0  0  0  0  0  0
   20.9780  -25.3647   15.1095 C   0  0  0  0  0  0  0  0  0  0  0  0
   22.9973  -24.9818   16.3543 C   0  0  0  0  0  0  0  0  0  0  0  0
   22.5908  -23.7024   16.6469 C   0  0  0  0  0  0  0  0  0  0  0  0
   22.1956  -25.8059   15.5903 C   0  0  0  0  0  0  0  0  0  0  0  0
   24.2193  -22.1799   18.1437 C   0  0  0  0  0  0  0  0  0  0  0  0
   23.4892  -22.8621   17.4746 C   0  0  0  0  0  0  0  0  0  0  0  0
  1  6  2  0  0  0
  1  2  1  0  0  0
  2  3  2  0  0  0
  3  4  1  0  0  0
  5  4  1  0  0  0
  4 12  2  0  0  0
  6  5  1  0  0  0
  5 14  2  0  0  0
 28 27  3  0  0  0
 17 15  1  0  0  0
 16 17  2  0  0  0
 25 28  1  0  0  0
 23 21  2  0  0  0
 21 22  1  0  0  0
 25 22  2  0  0  0
 26 23  1  0  0  0
  8  7  2  0  0  0
  7 11  1  0  0  0
  8 14  1  0  0  0
 26 24  2  0  0  0
 24 25  1  0  0  0
 11  9  2  0  0  0
 13  9  1  0  0  0
 13 10  2  0  0  0
 12 10  1  0  0  0
 12 19  1  0  0  0
 19 26  1  0  0  0
 11 17  1  0  0  0
 14 13  1  0  0  0
 15 18  1  0  0  0
 19 20  1  0  0  0
M  END
> <minimizedAffinity>
-9.84044

$$$$
3PE2_E1B_A_338


 28 31  0  0  0  0  0  0  0  0999 V2000
   23.2408  -31.9228   11.0421 N   0  0  0  0  0  0  0  0  0  0  0  0
   23.1054  -30.5965   10.7995 C   0  0  0  0  0  0  0  0  0  0  0  0
   22.8210  -29.7310   11.7895 N   0  0  0  0  0  0  0  0  0  0  0  0
   22.6638  -30.1732   13.0924 C   0  0  0  0  0  0  0  0  0  0  0  0
   22.7987  -31.5192   13.3770 C   0  0  0  0  0  0  0  0  0  0  0  0
   23.1011  -32.4094   12.2999 C   0  0  0  0  0  0  0  0  0  0  0  0
   22.5864  -33.7096   16.4606 C   0  0  0  0  0  0  0  0  0  0  0  0
   22.7581  -33.3293   15.1244 C   0  0  0  0  0  0  0  0  0  0  0  0
   22.1684  -31.4228   17.1315 C   0  0  0  0  0  0  0  0  0  0  0  0
   22.2154  -29.7135   15.4288 N   0  0  0  0  0  0  0  0  0  0  0  0
   22.3028  -32.7677   17.4708 C   0  0  0  0  0  0  0  0  0  0  0  0
   22.3554  -29.2845   14.1724 C   0  0  0  0  0  0  0  0  0  0  0  0
   22.3414  -31.0390   15.7686 C   0  0  0  0  0  0  0  0  0  0  0  0
   22.6186  -31.9551   14.7767 C   0  0  0  0  0  0  0  0  0  0  0  0
   23.0657  -33.9325   19.2686 O   0  0  0  0  0  0  0  0  0  0  0  0
   21.0891  -32.6581   19.3703 O   0  0  0  0  0  0  0  0  0  0  0  0
   22.1105  -33.2067   18.8889 C   0  0  0  0  0  0  0  0  0  0  0  0
   23.7194  -34.2053   18.6552 H   0  0  0  0  0  0  0  0  0  0  0  0
   22.1532  -27.8933   14.0429 N   0  0  0  0  0  0  0  0  0  0  0  0
   21.2400  -27.7085   14.3609 H   0  0  0  0  0  0  0  0  0  0  0  0
   23.8139  -25.1608   12.1679 C   0  0  0  0  0  0  0  0  0  0  0  0
   23.6946  -24.1438   13.0998 C   0  0  0  0  0  0  0  0  0  0  0  0
   23.3172  -26.4285   12.4344 C   0  0  0  0  0  0  0  0  0  0  0  0
   22.5886  -25.6498   14.5876 C   0  0  0  0  0  0  0  0  0  0  0  0
   23.0857  -24.3975   14.3184 C   0  0  0  0  0  0  0  0  0  0  0  0
   22.7047  -26.6574   13.6513 C   0  0  0  0  0  0  0  0  0  0  0  0
   22.8028  -22.5057   16.2029 C   0  0  0  0  0  0  0  0  0  0  0  0
   22.9301  -23.3519   15.3580 C   0  0  0  0  0  0  0  0  0  0  0  0
  1  6  2  0  0  0
  1  2  1  0  0  0
  2  3  2  0  0  0
  3  4  1  0  0  0
  5  4  1  0  0  0
  4 12  2  0  0  0
  6  5  1  0  0  0
  5 14  2  0  0  0
 28 27  3  0  0  0
 17 15  1  0  0  0
 16 17  2  0  0  0
 25 28  1  0  0  0
 23 21  2  0  0  0
 21 22  1  0  0  0
 25 22  2  0  0  0
 26 23  1  0  0  0
  8  7  2  0  0  0
  7 11  1  0  0  0
  8 14  1  0  0  0
 26 24  2  0  0  0
 24 25  1  0  0  0
 11  9  2  0  0  0
 13  9  1  0  0  0
 13 10  2  0  0  0
 12 10  1  0  0  0
 12 19  1  0  0  0
 19 26  1  0  0  0
 11 17  1  0  0  0
 14 13  1  0  0  0
 15 18  1  0  0  0
 19 20  1  0  0  0
M  END
> <minimizedAffinity>
-9.76205

$$$$
3PE2_E1B_A_338


 28 31  0  0  0  0  0  0  0  0999 V2000
   22.3264  -34.9342   12.6990 N   0  0  0  0  0  0  0  0  0  0  0  0
   22.2490  -35.1765   14.0300 C   0  0  0  0  0  0  0  0  0  0  0  0
   22.3329  -34.1778   14.9276 N   0  0  0  0  0  0  0  0  0  0  0  0
   22.4955  -32.8663   14.5136 C   0  0  0  0  0  0  0  0  0  0  0  0
   22.5746  -32.5819   13.1632 C   0  0  0  0  0  0  0  0  0  0  0  0
   22.4816  -33.6684   12.2385 C   0  0  0  0  0  0  0  0  0  0  0  0
   22.9945  -29.4802   11.0291 C   0  0  0  0  0  0  0  0  0  0  0  0
   22.8298  -30.8254   11.3797 C   0  0  0  0  0  0  0  0  0  0  0  0
   22.9872  -28.8008   13.3513 C   0  0  0  0  0  0  0  0  0  0  0  0
   22.7403  -30.5125   15.0341 N   0  0  0  0  0  0  0  0  0  0  0  0
   23.0637  -28.4618   12.0019 C   0  0  0  0  0  0  0  0  0  0  0  0
   22.5945  -31.7767   15.4378 C   0  0  0  0  0  0  0  0  0  0  0  0
   22.8219  -30.1728   13.7053 C   0  0  0  0  0  0  0  0  0  0  0  0
   22.7537  -31.1726   12.7590 C   0  0  0  0  0  0  0  0  0  0  0  0
   23.4584  -26.9406   10.3584 O   0  0  0  0  0  0  0  0  0  0  0  0
   23.0663  -26.2814   12.5839 O   0  0  0  0  0  0  0  0  0  0  0  0
   23.2544  -27.0335   11.5966 C   0  0  0  0  0  0  0  0  0  0  0  0
   23.5685  -27.7149    9.8423 H   0  0  0  0  0  0  0  0  0  0  0  0
   22.5662  -31.9030   16.8437 N   0  0  0  0  0  0  0  0  0  0  0  0
   22.9363  -32.7901   17.0564 H   0  0  0  0  0  0  0  0  0  0  0  0
   22.1423  -29.5112   19.6437 C   0  0  0  0  0  0  0  0  0  0  0  0
   21.4584  -30.3237   20.5319 C   0  0  0  0  0  0  0  0  0  0  0  0
   22.5343  -29.9903   18.4021 C   0  0  0  0  0  0  0  0  0  0  0  0
   21.5571  -32.1148   18.9547 C   0  0  0  0  0  0  0  0  0  0  0  0
   21.1747  -31.6347   20.1840 C   0  0  0  0  0  0  0  0  0  0  0  0
   22.2326  -31.2972   18.0711 C   0  0  0  0  0  0  0  0  0  0  0  0
   19.8569  -33.3007   21.8267 C   0  0  0  0  0  0  0  0  0  0  0  0
   20.4483  -32.5547   21.0919 C   0  0  0  0  0  0  0  0  0  0  0  0
  1  6  2  0  0  0
  1  2  1  0  0  0
  2  3  2  0  0  0
  3  4  1  0  0  0
  5  4  1  0  0  0
  4 12  2  0  0  0
  6  5  1  0  0  0
  5 14  2  0  0  0
 28 27  3  0  0  0
 17 15  1  0  0  0
 16 17  2  0  0  0
 25 28  1  0  0  0
 23 21  2  0  0  0
 21 22  1  0  0  0
 25 22  2  0  0  0
 26 23  1  0  0  0
  8  7  2  0  0  0
  7 11  1  0  0  0
  8 14  1  0  0  0
 26 24  2  0  0  0
 24 25  1  0  0  0
 11  9  2  0  0  0
 13  9  1  0  0  0
 13 10  2  0  0  0
 12 10  1  0  0  0
 12 19  1  0  0  0
 19 26  1  0  0  0
 11 17  1  0  0  0
 14 13  1  0  0  0
 15 18  1  0  0  0
 19 20  1  0  0  0
M  END
> <minimizedAffinity>
-9.63903

$$$$
3PE2_E1B_A_338


 28 31  0  0  0  0  0  0  0  0999 V2000
   22.3088  -28.4341   19.9040 N   0  0  0  0  0  0  0  0  0  0  0  0
   22.3740  -29.6447   19.2985 C   0  0  0  0  0  0  0  0  0  0  0  0
   22.4981  -29.7517   17.9632 N   0  0  0  0  0  0  0  0  0  0  0  0
   22.5691  -28.6212   17.1664 C   0  0  0  0  0  0  0  0  0  0  0  0
   22.5094  -27.3699   17.7506 C   0  0  0  0  0  0  0  0  0  0  0  0
   22.3775  -27.2947   19.1722 C   0  0  0  0  0  0  0  0  0  0  0  0
   22.6131  -23.7749   16.5604 C   0  0  0  0  0  0  0  0  0  0  0  0
   22.5364  -24.8753   17.4222 C   0  0  0  0  0  0  0  0  0  0  0  0
   22.8042  -25.2143   14.6251 C   0  0  0  0  0  0  0  0  0  0  0  0
   22.7747  -27.6012   14.9781 N   0  0  0  0  0  0  0  0  0  0  0  0
   22.7571  -23.9312   15.1666 C   0  0  0  0  0  0  0  0  0  0  0  0
   22.6956  -28.6935   15.7416 C   0  0  0  0  0  0  0  0  0  0  0  0
   22.7233  -26.3335   15.5057 C   0  0  0  0  0  0  0  0  0  0  0  0
   22.5824  -26.1871   16.8690 C   0  0  0  0  0  0  0  0  0  0  0  0
   21.7906  -22.6532   13.5530 O   0  0  0  0  0  0  0  0  0  0  0  0
   23.8499  -22.0625   14.5284 O   0  0  0  0  0  0  0  0  0  0  0  0
   22.8221  -22.7350   14.2689 C   0  0  0  0  0  0  0  0  0  0  0  0
   21.1587  -23.3451   13.5610 H   0  0  0  0  0  0  0  0  0  0  0  0
   22.7359  -29.8895   14.9925 N   0  0  0  0  0  0  0  0  0  0  0  0
   22.6101  -30.6285   15.6307 H   0  0  0  0  0  0  0  0  0  0  0  0
   23.3869  -30.4817   11.3917 C   0  0  0  0  0  0  0  0  0  0  0  0
   23.1100  -31.8370   11.3331 C   0  0  0  0  0  0  0  0  0  0  0  0
   23.2765  -29.7866   12.5873 C   0  0  0  0  0  0  0  0  0  0  0  0
   22.5957  -31.8232   13.6655 C   0  0  0  0  0  0  0  0  0  0  0  0
   22.7039  -32.5046   12.4773 C   0  0  0  0  0  0  0  0  0  0  0  0
   22.8799  -30.4734   13.7184 C   0  0  0  0  0  0  0  0  0  0  0  0
   22.1375  -35.1295   12.4822 C   0  0  0  0  0  0  0  0  0  0  0  0
   22.3905  -33.9539   12.4786 C   0  0  0  0  0  0  0  0  0  0  0  0
  1  6  2  0  0  0
  1  2  1  0  0  0
  2  3  2  0  0  0
  3  4  1  0  0  0
  5  4  1  0  0  0
  4 12  2  0  0  0
  6  5  1  0  0  0
  5 14  2  0  0  0
 28 27  3  0  0  0
 17 15  1  0  0  0
 16 17  2  0  0  0
 25 28  1  0  0  0
 23 21  2  0  0  0
 21 22  1  0  0  0
 25 22  2  0  0  0
 26 23  1  0  0  0
  8  7  2  0  0  0
  7 11  1  0  0  0
  8 14  1  0  0  0
 26 24  2  0  0  0
 24 25  1  0  0  0
 11  9  2  0  0  0
 13  9  1  0  0  0
 13 10  2  0  0  0
 12 10  1  0  0  0
 12 19  1  0  0  0
 19 26  1  0  0  0
 11 17  1  0  0  0
 14 13  1  0  0  0
 15 18  1  0  0  0
 19 20  1  0  0  0
M  END
> <minimizedAffinity>
-9.63176

$$$$
3PE2_E1B_A_338


 28 31  0  0  0  0  0  0  0  0999 V2000
   22.1309  -31.9208   20.9200 N   0  0  0  0  0  0  0  0  0  0  0  0
   21.9352  -32.9183   20.0239 C   0  0  0  0  0  0  0  0  0  0  0  0
   21.8689  -32.6677   18.7037 N   0  0  0  0  0  0  0  0  0  0  0  0
   22.0057  -31.3770   18.2207 C   0  0  0  0  0  0  0  0  0  0  0  0
   22.2102  -30.3354   19.1061 C   0  0  0  0  0  0  0  0  0  0  0  0
   22.2751  -30.6392   20.5017 C   0  0  0  0  0  0  0  0  0  0  0  0
   22.6986  -26.5860   18.8709 C   0  0  0  0  0  0  0  0  0  0  0  0
   22.5690  -27.8653   19.4244 C   0  0  0  0  0  0  0  0  0  0  0  0
   22.4208  -27.4511   16.6285 C   0  0  0  0  0  0  0  0  0  0  0  0
   22.0789  -29.8248   16.3616 N   0  0  0  0  0  0  0  0  0  0  0  0
   22.6369  -26.3688   17.4791 C   0  0  0  0  0  0  0  0  0  0  0  0
   21.9356  -31.0691   16.8238 C   0  0  0  0  0  0  0  0  0  0  0  0
   22.2867  -28.7530   17.1958 C   0  0  0  0  0  0  0  0  0  0  0  0
   22.3459  -28.9716   18.5554 C   0  0  0  0  0  0  0  0  0  0  0  0
   23.1007  -24.1676   17.8118 O   0  0  0  0  0  0  0  0  0  0  0  0
   22.5969  -25.0147   15.6741 O   0  0  0  0  0  0  0  0  0  0  0  0
   22.7648  -24.9869   16.9178 C   0  0  0  0  0  0  0  0  0  0  0  0
   23.1423  -24.4417   18.7068 H   0  0  0  0  0  0  0  0  0  0  0  0
   21.6992  -32.0104   15.7986 N   0  0  0  0  0  0  0  0  0  0  0  0
   20.9077  -32.5303   16.0677 H   0  0  0  0  0  0  0  0  0  0  0  0
   22.6530  -34.2390   12.9943 C   0  0  0  0  0  0  0  0  0  0  0  0
   22.9334  -33.2832   12.0328 C   0  0  0  0  0  0  0  0  0  0  0  0
   22.2388  -33.8664   14.2649 C   0  0  0  0  0  0  0  0  0  0  0  0
   22.4008  -31.5626   13.6015 C   0  0  0  0  0  0  0  0  0  0  0  0
   22.8137  -31.9388   12.3462 C   0  0  0  0  0  0  0  0  0  0  0  0
   22.1161  -32.5209   14.5534 C   0  0  0  0  0  0  0  0  0  0  0  0
   23.3361  -30.0017   10.5614 C   0  0  0  0  0  0  0  0  0  0  0  0
   23.1019  -30.8681   11.3617 C   0  0  0  0  0  0  0  0  0  0  0  0
  1  6  2  0  0  0
  1  2  1  0  0  0
  2  3  2  0  0  0
  3  4  1  0  0  0
  5  4  1  0  0  0
  4 12  2  0  0  0
  6  5  1  0  0  0
  5 14  2  0  0  0
 28 27  3  0  0  0
 17 15  1  0  0  0
 16 17  2  0  0  0
 25 28  1  0  0  0
 23 21  2  0  0  0
 21 22  1  0  0  0
 25 22  2  0  0  0
 26 23  1  0  0  0
  8  7  2  0  0  0
  7 11  1  0  0  0
  8 14  1  0  0  0
 26 24  2  0  0  0
 24 25  1  0  0  0
 11  9  2  0  0  0
 13  9  1  0  0  0
 13 10  2  0  0  0
 12 10  1  0  0  0
 12 19  1  0  0  0
 19 26  1  0  0  0
 11 17  1  0  0  0
 14 13  1  0  0  0
 15 18  1  0  0  0
 19 20  1  0  0  0
M  END
> <minimizedAffinity>
-9.48320

$$$$
3PE2_E1B_A_338


 28 31  0  0  0  0  0  0  0  0999 V2000
   23.0599  -32.5687   11.8701 N   0  0  0  0  0  0  0  0  0  0  0  0
   22.7170  -33.0781   13.0781 C   0  0  0  0  0  0  0  0  0  0  0  0
   22.4700  -32.2758   14.1295 N   0  0  0  0  0  0  0  0  0  0  0  0
   22.5540  -30.8992   14.0042 C   0  0  0  0  0  0  0  0  0  0  0  0
   22.8976  -30.3448   12.7855 C   0  0  0  0  0  0  0  0  0  0  0  0
   23.1529  -31.2280   11.6906 C   0  0  0  0  0  0  0  0  0  0  0  0
   23.3896  -26.8549   11.3962 C   0  0  0  0  0  0  0  0  0  0  0  0
   23.3221  -28.2519   11.4547 C   0  0  0  0  0  0  0  0  0  0  0  0
   22.7752  -26.6571   13.7280 C   0  0  0  0  0  0  0  0  0  0  0  0
   22.3756  -28.6853   14.9728 N   0  0  0  0  0  0  0  0  0  0  0  0
   23.1092  -26.0497   12.5192 C   0  0  0  0  0  0  0  0  0  0  0  0
   22.3042  -30.0123   15.1007 C   0  0  0  0  0  0  0  0  0  0  0  0
   22.7097  -28.0809   13.7849 C   0  0  0  0  0  0  0  0  0  0  0  0
   22.9829  -28.8733   12.6907 C   0  0  0  0  0  0  0  0  0  0  0  0
   22.6024  -24.0111   13.3899 O   0  0  0  0  0  0  0  0  0  0  0  0
   23.9426  -24.2351   11.4676 O   0  0  0  0  0  0  0  0  0  0  0  0
   23.2036  -24.5584   12.4295 C   0  0  0  0  0  0  0  0  0  0  0  0
   22.0964  -24.5307   13.9831 H   0  0  0  0  0  0  0  0  0  0  0  0
   21.9771  -30.4193   16.4124 N   0  0  0  0  0  0  0  0  0  0  0  0
   21.1498  -30.9489   16.3472 H   0  0  0  0  0  0  0  0  0  0  0  0
   23.1566  -29.3814   19.7697 C   0  0  0  0  0  0  0  0  0  0  0  0
   22.9379  -30.5616   20.4597 C   0  0  0  0  0  0  0  0  0  0  0  0
   22.8537  -29.2830   18.4194 C   0  0  0  0  0  0  0  0  0  0  0  0
   22.1192  -31.5705   18.4555 C   0  0  0  0  0  0  0  0  0  0  0  0
   22.4246  -31.6620   19.7920 C   0  0  0  0  0  0  0  0  0  0  0  0
   22.3333  -30.3887   17.7752 C   0  0  0  0  0  0  0  0  0  0  0  0
   21.9657  -34.0028   21.0250 C   0  0  0  0  0  0  0  0  0  0  0  0
   22.1707  -32.9538   20.4740 C   0  0  0  0  0  0  0  0  0  0  0  0
  1  6  2  0  0  0
  1  2  1  0  0  0
  2  3  2  0  0  0
  3  4  1  0  0  0
  5  4  1  0  0  0
  4 12  2  0  0  0
  6  5  1  0  0  0
  5 14  2  0  0  0
 28 27  3  0  0  0
 17 15  1  0  0  0
 16 17  2  0  0  0
 25 28  1  0  0  0
 23 21  2  0  0  0
 21 22  1  0  0  0
 25 22  2  0  0  0
 26 23  1  0  0  0
  8  7  2  0  0  0
  7 11  1  0  0  0
  8 14  1  0  0  0
 26 24  2  0  0  0
 24 25  1  0  0  0
 11  9  2  0  0  0
 13  9  1  0  0  0
 13 10  2  0  0  0
 12 10  1  0  0  0
 12 19  1  0  0  0
 19 26  1  0  0  0
 11 17  1  0  0  0
 14 13  1  0  0  0
 15 18  1  0  0  0
 19 20  1  0  0  0
M  END
> <minimizedAffinity>
-9.37733

$$$$
