1VYF_OLA_A_1134


 21 20  0  0  0  0  0  0  0  0999 V2000
    7.7838   31.9335    6.0399 C   0  0  0  0  0  0  0  0  0  0  0  0
    8.2042   33.2618    6.6242 C   0  0  0  0  0  0  0  0  0  0  0  0
    8.2653   34.3904    5.9014 C   0  0  0  0  0  0  0  0  0  0  0  0
    7.9102   34.4725    4.4303 C   0  0  0  0  0  0  0  0  0  0  0  0
    8.9957   35.1780    3.6143 C   0  0  0  0  0  0  0  0  0  0  0  0
   10.0525   35.8710    4.4871 C   0  0  0  0  0  0  0  0  0  0  0  0
   11.4330   36.0114    3.8351 C   0  0  0  0  0  0  0  0  0  0  0  0
   12.3829   34.8536    4.1667 C   0  0  0  0  0  0  0  0  0  0  0  0
   11.9645   34.1275    5.4504 C   0  0  0  0  0  0  0  0  0  0  0  0
   11.7155   32.6301    5.2374 C   0  0  0  0  0  0  0  0  0  0  0  0
   11.2846   32.3789    3.8136 C   0  0  0  0  0  0  0  0  0  0  0  0
    8.5027   30.7568    6.6941 C   0  0  0  0  0  0  0  0  0  0  0  0
    8.8984   31.0235    8.1404 C   0  0  0  0  0  0  0  0  0  0  0  0
    9.5678   29.8478    8.8660 C   0  0  0  0  0  0  0  0  0  0  0  0
   10.9425   30.1992    9.4519 C   0  0  0  0  0  0  0  0  0  0  0  0
   11.8672   31.0971    8.5849 C   0  0  0  0  0  0  0  0  0  0  0  0
   12.7266   32.0590    9.4219 C   0  0  0  0  0  0  0  0  0  0  0  0
   12.0702   32.8685   10.5408 C   0  0  0  0  0  0  0  0  0  0  0  0
   11.2577   33.7702   10.4048 O   0  0  0  0  0  0  0  0  0  0  0  0
   12.3488   32.5381   11.7929 O   0  0  0  0  0  0  0  0  0  0  0  0
   12.9639   31.8541   11.9711 H   0  0  0  0  0  0  0  0  0  0  0  0
 18 19  2  0  0  0
 18 20  1  0  0  0
 18 17  1  0  0  0
 17 16  1  0  0  0
 16 15  1  0  0  0
 15 14  1  0  0  0
 14 13  1  0  0  0
 13 12  1  0  0  0
 12  1  1  0  0  0
  1  2  1  0  0  0
  2  3  2  0  0  0
  3  4  1  0  0  0
  4  5  1  0  0  0
  5  6  1  0  0  0
  6  7  1  0  0  0
  7  8  1  0  0  0
  8  9  1  0  0  0
  9 10  1  0  0  0
 10 11  1  0  0  0
 20 21  1  0  0  0
M  END
> <minimizedAffinity>
-5.84830

$$$$
1VYF_OLA_A_1134


 21 20  0  0  0  0  0  0  0  0999 V2000
    8.4183   30.7269    8.0689 C   0  0  0  0  0  0  0  0  0  0  0  0
    7.9503   30.9936    6.6573 C   0  0  0  0  0  0  0  0  0  0  0  0
    7.7796   32.2306    6.1666 C   0  0  0  0  0  0  0  0  0  0  0  0
    8.0462   33.4972    6.9551 C   0  0  0  0  0  0  0  0  0  0  0  0
    8.1313   34.7302    6.0526 C   0  0  0  0  0  0  0  0  0  0  0  0
    7.8360   34.4203    4.5776 C   0  0  0  0  0  0  0  0  0  0  0  0
    8.9764   34.7561    3.6095 C   0  0  0  0  0  0  0  0  0  0  0  0
   10.2396   35.2693    4.3121 C   0  0  0  0  0  0  0  0  0  0  0  0
   11.4137   34.2974    4.1478 C   0  0  0  0  0  0  0  0  0  0  0  0
   11.0765   32.8701    4.5934 C   0  0  0  0  0  0  0  0  0  0  0  0
   11.5207   32.6594    6.0197 C   0  0  0  0  0  0  0  0  0  0  0  0
    9.6041   29.7672    8.1167 C   0  0  0  0  0  0  0  0  0  0  0  0
   10.4454   29.9141    9.3776 C   0  0  0  0  0  0  0  0  0  0  0  0
   11.9589   29.7470    9.1810 C   0  0  0  0  0  0  0  0  0  0  0  0
   12.7622   29.9178   10.4779 C   0  0  0  0  0  0  0  0  0  0  0  0
   12.6217   31.2764   11.2178 C   0  0  0  0  0  0  0  0  0  0  0  0
   12.8222   32.4878   10.2921 C   0  0  0  0  0  0  0  0  0  0  0  0
   12.8768   33.8912   10.8967 C   0  0  0  0  0  0  0  0  0  0  0  0
   12.4279   34.9135   10.4018 O   0  0  0  0  0  0  0  0  0  0  0  0
   13.4052   34.0279   12.1036 O   0  0  0  0  0  0  0  0  0  0  0  0
   13.7684   33.2843   12.5430 H   0  0  0  0  0  0  0  0  0  0  0  0
 18 19  2  0  0  0
 18 20  1  0  0  0
 18 17  1  0  0  0
 17 16  1  0  0  0
 16 15  1  0  0  0
 15 14  1  0  0  0
 14 13  1  0  0  0
 13 12  1  0  0  0
 12  1  1  0  0  0
  1  2  1  0  0  0
  2  3  2  0  0  0
  3  4  1  0  0  0
  4  5  1  0  0  0
  5  6  1  0  0  0
  6  7  1  0  0  0
  7  8  1  0  0  0
  8  9  1  0  0  0
  9 10  1  0  0  0
 10 11  1  0  0  0
 20 21  1  0  0  0
M  END
> <minimizedAffinity>
-5.69048

$$$$
1VYF_OLA_A_1134


 21 20  0  0  0  0  0  0  0  0999 V2000
   10.3223   28.9876    8.6904 C   0  0  0  0  0  0  0  0  0  0  0  0
    9.4899   30.1603    9.1535 C   0  0  0  0  0  0  0  0  0  0  0  0
    8.8242   30.9616    8.3081 C   0  0  0  0  0  0  0  0  0  0  0  0
    8.8144   30.7815    6.8033 C   0  0  0  0  0  0  0  0  0  0  0  0
    7.7970   31.6982    6.1201 C   0  0  0  0  0  0  0  0  0  0  0  0
    7.6457   33.0581    6.8178 C   0  0  0  0  0  0  0  0  0  0  0  0
    8.3287   34.2281    6.1001 C   0  0  0  0  0  0  0  0  0  0  0  0
    7.8775   34.3952    4.6436 C   0  0  0  0  0  0  0  0  0  0  0  0
    9.0370   34.8240    3.7370 C   0  0  0  0  0  0  0  0  0  0  0  0
   10.4130   34.5344    4.3472 C   0  0  0  0  0  0  0  0  0  0  0  0
   10.9644   33.2487    3.7826 C   0  0  0  0  0  0  0  0  0  0  0  0
   11.6108   28.8357    9.4943 C   0  0  0  0  0  0  0  0  0  0  0  0
   12.0698   30.1342   10.1445 C   0  0  0  0  0  0  0  0  0  0  0  0
   13.5726   30.2229   10.4458 C   0  0  0  0  0  0  0  0  0  0  0  0
   14.4549   29.9470    9.2203 C   0  0  0  0  0  0  0  0  0  0  0  0
   15.6323   30.9282    8.9669 C   0  0  0  0  0  0  0  0  0  0  0  0
   16.5897   30.4452    7.8648 C   0  0  0  0  0  0  0  0  0  0  0  0
   16.3343   30.8619    6.4159 C   0  0  0  0  0  0  0  0  0  0  0  0
   15.2682   31.2210    5.9403 O   0  0  0  0  0  0  0  0  0  0  0  0
   17.3685   30.9034    5.5895 O   0  0  0  0  0  0  0  0  0  0  0  0
   18.2174   30.6418    5.8878 H   0  0  0  0  0  0  0  0  0  0  0  0
 18 19  2  0  0  0
 18 20  1  0  0  0
 18 17  1  0  0  0
 17 16  1  0  0  0
 16 15  1  0  0  0
 15 14  1  0  0  0
 14 13  1  0  0  0
 13 12  1  0  0  0
 12  1  1  0  0  0
  1  2  1  0  0  0
  2  3  2  0  0  0
  3  4  1  0  0  0
  4  5  1  0  0  0
  5  6  1  0  0  0
  6  7  1  0  0  0
  7  8  1  0  0  0
  8  9  1  0  0  0
  9 10  1  0  0  0
 10 11  1  0  0  0
 20 21  1  0  0  0
M  END
> <minimizedAffinity>
-5.68045

$$$$
1VYF_OLA_A_1134


 21 20  0  0  0  0  0  0  0  0999 V2000
    8.1457   34.4295    4.4939 C   0  0  0  0  0  0  0  0  0  0  0  0
    8.2266   34.3255    5.9990 C   0  0  0  0  0  0  0  0  0  0  0  0
    7.9663   33.1916    6.6672 C   0  0  0  0  0  0  0  0  0  0  0  0
    7.5776   31.8874    6.0001 C   0  0  0  0  0  0  0  0  0  0  0  0
    8.4250   30.7129    6.4943 C   0  0  0  0  0  0  0  0  0  0  0  0
    8.8153   30.8309    7.9751 C   0  0  0  0  0  0  0  0  0  0  0  0
    9.8214   29.7807    8.4603 C   0  0  0  0  0  0  0  0  0  0  0  0
   10.8726   30.3451    9.4242 C   0  0  0  0  0  0  0  0  0  0  0  0
   12.1098   29.4434    9.5043 C   0  0  0  0  0  0  0  0  0  0  0  0
   13.3229   30.1449   10.1254 C   0  0  0  0  0  0  0  0  0  0  0  0
   14.5891   29.6665    9.4591 C   0  0  0  0  0  0  0  0  0  0  0  0
    9.4022   35.0461    3.8853 C   0  0  0  0  0  0  0  0  0  0  0  0
   10.6650   34.7462    4.6820 C   0  0  0  0  0  0  0  0  0  0  0  0
   11.2391   33.3344    4.4968 C   0  0  0  0  0  0  0  0  0  0  0  0
   11.4915   32.6029    5.8226 C   0  0  0  0  0  0  0  0  0  0  0  0
   12.7608   33.0109    6.6199 C   0  0  0  0  0  0  0  0  0  0  0  0
   13.7960   31.8784    6.7211 C   0  0  0  0  0  0  0  0  0  0  0  0
   15.0979   31.9809    5.9255 C   0  0  0  0  0  0  0  0  0  0  0  0
   15.3751   32.8294    5.0919 O   0  0  0  0  0  0  0  0  0  0  0  0
   16.0594   31.1099    6.1920 O   0  0  0  0  0  0  0  0  0  0  0  0
   15.9155   30.4313    6.8219 H   0  0  0  0  0  0  0  0  0  0  0  0
 18 19  2  0  0  0
 18 20  1  0  0  0
 18 17  1  0  0  0
 17 16  1  0  0  0
 16 15  1  0  0  0
 15 14  1  0  0  0
 14 13  1  0  0  0
 13 12  1  0  0  0
 12  1  1  0  0  0
  1  2  1  0  0  0
  2  3  2  0  0  0
  3  4  1  0  0  0
  4  5  1  0  0  0
  5  6  1  0  0  0
  6  7  1  0  0  0
  7  8  1  0  0  0
  8  9  1  0  0  0
  9 10  1  0  0  0
 10 11  1  0  0  0
 20 21  1  0  0  0
M  END
> <minimizedAffinity>
-5.67974

$$$$
1VYF_OLA_A_1134


 21 20  0  0  0  0  0  0  0  0999 V2000
   10.1024   29.4241    8.7760 C   0  0  0  0  0  0  0  0  0  0  0  0
    8.9195   30.3589    8.8744 C   0  0  0  0  0  0  0  0  0  0  0  0
    8.6202   31.2594    7.9259 C   0  0  0  0  0  0  0  0  0  0  0  0
    9.4149   31.4369    6.6477 C   0  0  0  0  0  0  0  0  0  0  0  0
   10.5094   32.4966    6.7925 C   0  0  0  0  0  0  0  0  0  0  0  0
   11.5473   32.4511    5.6614 C   0  0  0  0  0  0  0  0  0  0  0  0
   11.0243   32.8968    4.2908 C   0  0  0  0  0  0  0  0  0  0  0  0
   11.3418   34.3618    3.9656 C   0  0  0  0  0  0  0  0  0  0  0  0
   10.1713   35.2868    4.3181 C   0  0  0  0  0  0  0  0  0  0  0  0
    8.8506   34.8546    3.6712 C   0  0  0  0  0  0  0  0  0  0  0  0
    7.8811   34.4039    4.7355 C   0  0  0  0  0  0  0  0  0  0  0  0
   11.3292   29.9597    9.5091 C   0  0  0  0  0  0  0  0  0  0  0  0
   12.5441   29.0489    9.3920 C   0  0  0  0  0  0  0  0  0  0  0  0
   13.8800   29.6780    9.8123 C   0  0  0  0  0  0  0  0  0  0  0  0
   14.8004   29.9978    8.6260 C   0  0  0  0  0  0  0  0  0  0  0  0
   15.9966   30.9498    8.9013 C   0  0  0  0  0  0  0  0  0  0  0  0
   16.2374   31.9560    7.7636 C   0  0  0  0  0  0  0  0  0  0  0  0
   17.2215   31.6030    6.6478 C   0  0  0  0  0  0  0  0  0  0  0  0
   17.0592   30.7654    5.7739 O   0  0  0  0  0  0  0  0  0  0  0  0
   18.3430   32.3027    6.5637 O   0  0  0  0  0  0  0  0  0  0  0  0
   18.5324   32.9626    7.2014 H   0  0  0  0  0  0  0  0  0  0  0  0
 18 19  2  0  0  0
 18 20  1  0  0  0
 18 17  1  0  0  0
 17 16  1  0  0  0
 16 15  1  0  0  0
 15 14  1  0  0  0
 14 13  1  0  0  0
 13 12  1  0  0  0
 12  1  1  0  0  0
  1  2  1  0  0  0
  2  3  2  0  0  0
  3  4  1  0  0  0
  4  5  1  0  0  0
  5  6  1  0  0  0
  6  7  1  0  0  0
  7  8  1  0  0  0
  8  9  1  0  0  0
  9 10  1  0  0  0
 10 11  1  0  0  0
 20 21  1  0  0  0
M  END
> <minimizedAffinity>
-5.62301

$$$$
1VYF_OLA_A_1134


 21 20  0  0  0  0  0  0  0  0999 V2000
    8.6274   30.8320    6.5474 C   0  0  0  0  0  0  0  0  0  0  0  0
    8.3661   31.2059    7.9878 C   0  0  0  0  0  0  0  0  0  0  0  0
    9.0305   30.6573    9.0162 C   0  0  0  0  0  0  0  0  0  0  0  0
   10.1221   29.6177    8.8593 C   0  0  0  0  0  0  0  0  0  0  0  0
   11.2361   29.7916    9.8941 C   0  0  0  0  0  0  0  0  0  0  0  0
   12.5445   29.0929    9.4958 C   0  0  0  0  0  0  0  0  0  0  0  0
   13.7962   29.6173   10.2092 C   0  0  0  0  0  0  0  0  0  0  0  0
   14.7545   30.3728    9.2799 C   0  0  0  0  0  0  0  0  0  0  0  0
   14.1373   30.6031    7.8957 C   0  0  0  0  0  0  0  0  0  0  0  0
   13.8224   32.0773    7.6182 C   0  0  0  0  0  0  0  0  0  0  0  0
   12.3527   32.2407    7.3191 C   0  0  0  0  0  0  0  0  0  0  0  0
    8.9712   32.0436    5.6854 C   0  0  0  0  0  0  0  0  0  0  0  0
    8.8109   33.3682    6.4196 C   0  0  0  0  0  0  0  0  0  0  0  0
    8.2532   34.5236    5.5764 C   0  0  0  0  0  0  0  0  0  0  0  0
    8.8689   34.6030    4.1724 C   0  0  0  0  0  0  0  0  0  0  0  0
   10.3585   35.0342    4.0817 C   0  0  0  0  0  0  0  0  0  0  0  0
   10.5657   36.5358    4.3403 C   0  0  0  0  0  0  0  0  0  0  0  0
   11.9839   37.0731    4.5359 C   0  0  0  0  0  0  0  0  0  0  0  0
   12.9859   36.4130    4.7635 O   0  0  0  0  0  0  0  0  0  0  0  0
   12.1812   38.3746    4.3895 O   0  0  0  0  0  0  0  0  0  0  0  0
   11.4563   38.9415    4.2130 H   0  0  0  0  0  0  0  0  0  0  0  0
 18 19  2  0  0  0
 18 20  1  0  0  0
 18 17  1  0  0  0
 17 16  1  0  0  0
 16 15  1  0  0  0
 15 14  1  0  0  0
 14 13  1  0  0  0
 13 12  1  0  0  0
 12  1  1  0  0  0
  1  2  1  0  0  0
  2  3  2  0  0  0
  3  4  1  0  0  0
  4  5  1  0  0  0
  5  6  1  0  0  0
  6  7  1  0  0  0
  7  8  1  0  0  0
  8  9  1  0  0  0
  9 10  1  0  0  0
 10 11  1  0  0  0
 20 21  1  0  0  0
M  END
> <minimizedAffinity>
-5.57812

$$$$
1VYF_OLA_A_1134


 21 20  0  0  0  0  0  0  0  0999 V2000
    8.8422   31.4531    6.0453 C   0  0  0  0  0  0  0  0  0  0  0  0
   10.1671   31.9860    6.5386 C   0  0  0  0  0  0  0  0  0  0  0  0
   10.5060   32.0109    7.8364 C   0  0  0  0  0  0  0  0  0  0  0  0
    9.6170   31.4999    8.9524 C   0  0  0  0  0  0  0  0  0  0  0  0
   10.3382   30.4882    9.8458 C   0  0  0  0  0  0  0  0  0  0  0  0
   10.8103   29.2400    9.0854 C   0  0  0  0  0  0  0  0  0  0  0  0
   12.1457   28.6610    9.5669 C   0  0  0  0  0  0  0  0  0  0  0  0
   12.8845   29.5742   10.5533 C   0  0  0  0  0  0  0  0  0  0  0  0
   14.1418   30.1866    9.9255 C   0  0  0  0  0  0  0  0  0  0  0  0
   14.3176   29.8120    8.4497 C   0  0  0  0  0  0  0  0  0  0  0  0
   14.1321   31.0338    7.5844 C   0  0  0  0  0  0  0  0  0  0  0  0
    7.7221   32.4834    6.1599 C   0  0  0  0  0  0  0  0  0  0  0  0
    8.1826   33.9060    5.8713 C   0  0  0  0  0  0  0  0  0  0  0  0
    7.8909   34.4162    4.4530 C   0  0  0  0  0  0  0  0  0  0  0  0
    9.1403   34.9295    3.7235 C   0  0  0  0  0  0  0  0  0  0  0  0
   10.3978   35.2059    4.5927 C   0  0  0  0  0  0  0  0  0  0  0  0
   11.7125   34.8613    3.8735 C   0  0  0  0  0  0  0  0  0  0  0  0
   12.1039   33.3943    3.6915 C   0  0  0  0  0  0  0  0  0  0  0  0
   11.7676   32.6609    2.7747 O   0  0  0  0  0  0  0  0  0  0  0  0
   12.9385   32.8601    4.5704 O   0  0  0  0  0  0  0  0  0  0  0  0
   13.2381   33.3663    5.2997 H   0  0  0  0  0  0  0  0  0  0  0  0
 18 19  2  0  0  0
 18 20  1  0  0  0
 18 17  1  0  0  0
 17 16  1  0  0  0
 16 15  1  0  0  0
 15 14  1  0  0  0
 14 13  1  0  0  0
 13 12  1  0  0  0
 12  1  1  0  0  0
  1  2  1  0  0  0
  2  3  2  0  0  0
  3  4  1  0  0  0
  4  5  1  0  0  0
  5  6  1  0  0  0
  6  7  1  0  0  0
  7  8  1  0  0  0
  8  9  1  0  0  0
  9 10  1  0  0  0
 10 11  1  0  0  0
 20 21  1  0  0  0
M  END
> <minimizedAffinity>
-5.56402

$$$$
1VYF_OLA_A_1134


 21 20  0  0  0  0  0  0  0  0999 V2000
    9.0003   32.1291    5.6617 C   0  0  0  0  0  0  0  0  0  0  0  0
    8.3335   33.3491    6.2528 C   0  0  0  0  0  0  0  0  0  0  0  0
    8.3967   34.5627    5.6843 C   0  0  0  0  0  0  0  0  0  0  0  0
    9.1244   34.8517    4.3867 C   0  0  0  0  0  0  0  0  0  0  0  0
   10.3488   35.7447    4.5996 C   0  0  0  0  0  0  0  0  0  0  0  0
   11.5886   35.2624    3.8320 C   0  0  0  0  0  0  0  0  0  0  0  0
   12.0938   33.8722    4.2354 C   0  0  0  0  0  0  0  0  0  0  0  0
   12.5005   33.7774    5.7113 C   0  0  0  0  0  0  0  0  0  0  0  0
   12.5757   32.3217    6.1859 C   0  0  0  0  0  0  0  0  0  0  0  0
   13.5153   32.1292    7.3814 C   0  0  0  0  0  0  0  0  0  0  0  0
   13.2272   33.1714    8.4336 C   0  0  0  0  0  0  0  0  0  0  0  0
    8.7149   30.8636    6.4656 C   0  0  0  0  0  0  0  0  0  0  0  0
    8.0636   31.1424    7.8137 C   0  0  0  0  0  0  0  0  0  0  0  0
    8.9422   30.8564    9.0398 C   0  0  0  0  0  0  0  0  0  0  0  0
   10.4122   30.5922    8.6850 C   0  0  0  0  0  0  0  0  0  0  0  0
   11.0451   29.2861    9.2390 C   0  0  0  0  0  0  0  0  0  0  0  0
   12.3691   29.5289    9.9822 C   0  0  0  0  0  0  0  0  0  0  0  0
   12.3527   30.2759   11.3164 C   0  0  0  0  0  0  0  0  0  0  0  0
   11.7179   29.9684   12.3135 O   0  0  0  0  0  0  0  0  0  0  0  0
   13.1434   31.3303   11.4482 O   0  0  0  0  0  0  0  0  0  0  0  0
   13.6597   31.6223   10.7229 H   0  0  0  0  0  0  0  0  0  0  0  0
 18 19  2  0  0  0
 18 20  1  0  0  0
 18 17  1  0  0  0
 17 16  1  0  0  0
 16 15  1  0  0  0
 15 14  1  0  0  0
 14 13  1  0  0  0
 13 12  1  0  0  0
 12  1  1  0  0  0
  1  2  1  0  0  0
  2  3  2  0  0  0
  3  4  1  0  0  0
  4  5  1  0  0  0
  5  6  1  0  0  0
  6  7  1  0  0  0
  7  8  1  0  0  0
  8  9  1  0  0  0
  9 10  1  0  0  0
 10 11  1  0  0  0
 20 21  1  0  0  0
M  END
> <minimizedAffinity>
-5.49015

$$$$
1VYF_OLA_A_1134


 21 20  0  0  0  0  0  0  0  0999 V2000
    8.7901   30.7498    7.6711 C   0  0  0  0  0  0  0  0  0  0  0  0
    9.4397   31.4070    8.8664 C   0  0  0  0  0  0  0  0  0  0  0  0
   10.6638   31.9543    8.8225 C   0  0  0  0  0  0  0  0  0  0  0  0
   11.5289   31.9923    7.5786 C   0  0  0  0  0  0  0  0  0  0  0  0
   12.9689   32.4053    7.8910 C   0  0  0  0  0  0  0  0  0  0  0  0
   14.0095   31.3930    7.3896 C   0  0  0  0  0  0  0  0  0  0  0  0
   14.9863   30.8918    8.4598 C   0  0  0  0  0  0  0  0  0  0  0  0
   14.4573   29.6885    9.2504 C   0  0  0  0  0  0  0  0  0  0  0  0
   13.7603   30.1231   10.5447 C   0  0  0  0  0  0  0  0  0  0  0  0
   12.4542   29.3646   10.8054 C   0  0  0  0  0  0  0  0  0  0  0  0
   12.0345   28.6225    9.5608 C   0  0  0  0  0  0  0  0  0  0  0  0
    7.6152   31.5595    7.1295 C   0  0  0  0  0  0  0  0  0  0  0  0
    7.9290   32.2714    5.8203 C   0  0  0  0  0  0  0  0  0  0  0  0
    8.6137   33.6381    5.9631 C   0  0  0  0  0  0  0  0  0  0  0  0
    9.6839   33.8958    4.8932 C   0  0  0  0  0  0  0  0  0  0  0  0
    9.4362   35.0837    3.9232 C   0  0  0  0  0  0  0  0  0  0  0  0
   10.7116   35.8873    3.6201 C   0  0  0  0  0  0  0  0  0  0  0  0
   11.2899   36.8076    4.6957 C   0  0  0  0  0  0  0  0  0  0  0  0
   11.9763   36.4705    5.6480 O   0  0  0  0  0  0  0  0  0  0  0  0
   11.0907   38.1111    4.5712 O   0  0  0  0  0  0  0  0  0  0  0  0
   10.5733   38.4404    3.8628 H   0  0  0  0  0  0  0  0  0  0  0  0
 18 19  2  0  0  0
 18 20  1  0  0  0
 18 17  1  0  0  0
 17 16  1  0  0  0
 16 15  1  0  0  0
 15 14  1  0  0  0
 14 13  1  0  0  0
 13 12  1  0  0  0
 12  1  1  0  0  0
  1  2  1  0  0  0
  2  3  2  0  0  0
  3  4  1  0  0  0
  4  5  1  0  0  0
  5  6  1  0  0  0
  6  7  1  0  0  0
  7  8  1  0  0  0
  8  9  1  0  0  0
  9 10  1  0  0  0
 10 11  1  0  0  0
 20 21  1  0  0  0
M  END
> <minimizedAffinity>
-5.48121

$$$$
1VYF_OLA_A_1134


 21 20  0  0  0  0  0  0  0  0999 V2000
   10.0821   35.0334    4.9067 C   0  0  0  0  0  0  0  0  0  0  0  0
    8.7144   34.8376    4.2954 C   0  0  0  0  0  0  0  0  0  0  0  0
    7.7804   34.0410    4.8368 C   0  0  0  0  0  0  0  0  0  0  0  0
    7.9761   33.2603    6.1209 C   0  0  0  0  0  0  0  0  0  0  0  0
    7.7956   31.7549    5.9129 C   0  0  0  0  0  0  0  0  0  0  0  0
    8.4391   30.9106    7.0228 C   0  0  0  0  0  0  0  0  0  0  0  0
    8.7688   31.6808    8.3069 C   0  0  0  0  0  0  0  0  0  0  0  0
    9.3047   30.7865    9.4320 C   0  0  0  0  0  0  0  0  0  0  0  0
   10.4749   29.9178    8.9564 C   0  0  0  0  0  0  0  0  0  0  0  0
   11.5431   29.7091   10.0356 C   0  0  0  0  0  0  0  0  0  0  0  0
   12.7426   29.0124    9.4425 C   0  0  0  0  0  0  0  0  0  0  0  0
   11.1926   34.4269    4.0533 C   0  0  0  0  0  0  0  0  0  0  0  0
   11.5477   33.0013    4.4542 C   0  0  0  0  0  0  0  0  0  0  0  0
   11.5303   32.7192    5.9632 C   0  0  0  0  0  0  0  0  0  0  0  0
   12.8776   32.9906    6.6472 C   0  0  0  0  0  0  0  0  0  0  0  0
   13.1067   32.3310    8.0348 C   0  0  0  0  0  0  0  0  0  0  0  0
   13.2927   33.3578    9.1642 C   0  0  0  0  0  0  0  0  0  0  0  0
   12.3488   33.3271   10.3668 C   0  0  0  0  0  0  0  0  0  0  0  0
   11.1984   33.7362   10.3982 O   0  0  0  0  0  0  0  0  0  0  0  0
   12.7779   32.7503   11.4793 O   0  0  0  0  0  0  0  0  0  0  0  0
   13.6509   32.4134   11.5257 H   0  0  0  0  0  0  0  0  0  0  0  0
 18 19  2  0  0  0
 18 20  1  0  0  0
 18 17  1  0  0  0
 17 16  1  0  0  0
 16 15  1  0  0  0
 15 14  1  0  0  0
 14 13  1  0  0  0
 13 12  1  0  0  0
 12  1  1  0  0  0
  1  2  1  0  0  0
  2  3  2  0  0  0
  3  4  1  0  0  0
  4  5  1  0  0  0
  5  6  1  0  0  0
  6  7  1  0  0  0
  7  8  1  0  0  0
  8  9  1  0  0  0
  9 10  1  0  0  0
 10 11  1  0  0  0
 20 21  1  0  0  0
M  END
> <minimizedAffinity>
-5.44383

$$$$
