6MA5_J9V_A_1101


 40 43  0  0  0  0  0  0  0  0999 V2000
   -1.1199  -43.8828   14.2254 C   0  0  0  0  0  0  0  0  0  0  0  0
   -1.5513  -46.2558   13.3696 C   0  0  0  0  0  0  0  0  0  0  0  0
   -1.2707  -45.3784   14.4597 C   0  0  0  0  0  0  0  0  0  0  0  0
   -1.7191  -47.6290   13.6068 C   0  0  0  0  0  0  0  0  0  0  0  0
   -1.6028  -48.1584   14.8921 C   0  0  0  0  0  0  0  0  0  0  0  0
   -1.3276  -47.3166   15.9629 C   0  0  0  0  0  0  0  0  0  0  0  0
   -1.1719  -45.9451   15.7322 C   0  0  0  0  0  0  0  0  0  0  0  0
   -1.6641  -45.7109   12.1068 O   0  0  0  0  0  0  0  0  0  0  0  0
   -1.4671  -46.5013   10.9398 C   0  0  0  0  0  0  0  0  0  0  0  0
   -2.4978  -43.1004   14.2419 C   0  0  0  0  0  0  0  0  0  0  0  0
   -2.6198  -41.7860   14.7593 N   0  0  0  0  0  0  0  0  0  0  0  0
   -3.4578  -43.6824   13.7818 O   0  0  0  0  0  0  0  0  0  0  0  0
   -1.4426  -41.0595   15.3033 C   0  0  0  0  0  0  0  0  0  0  0  0
   -1.7346  -40.2732   16.6101 C   0  0  0  0  0  0  0  0  0  0  0  0
   -1.7480  -38.9137   16.8631 C   0  0  0  0  0  0  0  0  0  0  0  0
   -2.2983  -39.6429   19.0078 C   0  0  0  0  0  0  0  0  0  0  0  0
   -2.0668  -38.5528   18.2270 C   0  0  0  0  0  0  0  0  0  0  0  0
   -2.1158  -41.0550   18.0934 S   0  0  0  0  0  0  0  0  0  0  0  0
   -3.9321  -41.0801   14.7357 C   0  0  0  0  0  0  0  0  0  0  0  0
   -4.3799  -40.7103   13.2750 C   0  0  0  0  0  0  0  0  0  0  0  0
   -5.3241  -41.3513   12.7967 O   0  0  0  0  0  0  0  0  0  0  0  0
   -3.7192  -39.8030   12.7493 O   0  0  0  0  0  0  0  0  0  0  0  0
   -5.7421  -42.0187   13.3044 H   0  0  0  0  0  0  0  0  0  0  0  0
   -0.4232  -43.6232   12.9425 N   0  0  0  0  0  0  0  0  0  0  0  0
   -0.5206  -44.4709   12.3835 H   0  0  0  0  0  0  0  0  0  0  0  0
    1.1858  -43.2180   12.9074 S   0  0  0  0  0  0  0  0  0  0  0  0
    1.5406  -42.7127   11.6349 O   0  0  0  0  0  0  0  0  0  0  0  0
    1.4563  -42.3445   13.9975 O   0  0  0  0  0  0  0  0  0  0  0  0
    5.9666  -49.6876   14.6156 O   0  0  0  0  0  0  0  0  0  0  0  0
    5.3985  -48.6115   14.5756 C   0  0  0  0  0  0  0  0  0  0  0  0
    4.3859  -48.4250   13.6265 N   0  0  0  0  0  0  0  0  0  0  0  0
    3.6375  -47.2582   13.4526 C   0  0  0  0  0  0  0  0  0  0  0  0
    3.9085  -46.1350   14.3011 C   0  0  0  0  0  0  0  0  0  0  0  0
    4.9701  -46.3230   15.2953 C   0  0  0  0  0  0  0  0  0  0  0  0
    5.6740  -47.4616   15.4427 C   0  0  0  0  0  0  0  0  0  0  0  0
    3.1249  -44.9498   14.0860 C   0  0  0  0  0  0  0  0  0  0  0  0
    2.1009  -44.7831   13.1494 C   0  0  0  0  0  0  0  0  0  0  0  0
    1.8858  -45.9161   12.3165 C   0  0  0  0  0  0  0  0  0  0  0  0
    2.5983  -47.0904   12.4623 C   0  0  0  0  0  0  0  0  0  0  0  0
    4.1839  -49.1818   13.0301 H   0  0  0  0  0  0  0  0  0  0  0  0
 29 30  2  0  0  0
 30 35  1  0  0  0
 30 31  1  0  0  0
 35 34  2  0  0  0
 31 32  1  0  0  0
 34 33  1  0  0  0
 32 33  2  0  0  0
 32 39  1  0  0  0
 33 36  1  0  0  0
 39 38  2  0  0  0
 36 37  2  0  0  0
 16 17  2  0  0  0
 16 18  1  0  0  0
 38 37  1  0  0  0
 37 26  1  0  0  0
 17 15  1  0  0  0
 18 14  1  0  0  0
 28 26  2  0  0  0
 27 26  2  0  0  0
 26 24  1  0  0  0
 15 14  2  0  0  0
 14 13  1  0  0  0
 19 11  1  0  0  0
 19 20  1  0  0  0
 24  1  1  0  0  0
 12 10  2  0  0  0
 11 10  1  0  0  0
 11 13  1  0  0  0
 10  1  1  0  0  0
  1  3  1  0  0  0
 22 20  2  0  0  0
 20 21  1  0  0  0
  8  9  1  0  0  0
  8  2  1  0  0  0
  3  2  2  0  0  0
  3  7  1  0  0  0
  2  4  1  0  0  0
  7  6  2  0  0  0
  4  5  2  0  0  0
  6  5  1  0  0  0
 24 25  1  0  0  0
 31 40  1  0  0  0
 21 23  1  0  0  0
M  END
> <minimizedAffinity>
-9.68589

$$$$
6MA5_J9V_A_1101


 40 43  0  0  0  0  0  0  0  0999 V2000
   -1.1371  -42.6894   15.5689 C   0  0  0  0  0  0  0  0  0  0  0  0
   -2.1232  -45.0406   15.7907 C   0  0  0  0  0  0  0  0  0  0  0  0
   -2.0188  -43.8195   15.0592 C   0  0  0  0  0  0  0  0  0  0  0  0
   -2.9158  -46.0857   15.2910 C   0  0  0  0  0  0  0  0  0  0  0  0
   -3.6185  -45.9490   14.0938 C   0  0  0  0  0  0  0  0  0  0  0  0
   -3.5282  -44.7650   13.3719 C   0  0  0  0  0  0  0  0  0  0  0  0
   -2.7292  -43.7253   13.8606 C   0  0  0  0  0  0  0  0  0  0  0  0
   -1.4183  -45.1553   16.9714 O   0  0  0  0  0  0  0  0  0  0  0  0
   -2.0788  -45.4141   18.2052 C   0  0  0  0  0  0  0  0  0  0  0  0
   -1.9055  -41.3125   15.7259 C   0  0  0  0  0  0  0  0  0  0  0  0
   -2.4482  -40.8813   16.9628 N   0  0  0  0  0  0  0  0  0  0  0  0
   -2.0074  -40.6310   14.7274 O   0  0  0  0  0  0  0  0  0  0  0  0
   -2.3065  -41.7015   18.1944 C   0  0  0  0  0  0  0  0  0  0  0  0
   -2.4019  -40.8846   19.5114 C   0  0  0  0  0  0  0  0  0  0  0  0
   -1.4726  -40.0806   20.1458 C   0  0  0  0  0  0  0  0  0  0  0  0
   -3.2145  -39.8210   21.6731 C   0  0  0  0  0  0  0  0  0  0  0  0
   -1.9321  -39.4758   21.3767 C   0  0  0  0  0  0  0  0  0  0  0  0
   -3.8201  -40.8610   20.4836 S   0  0  0  0  0  0  0  0  0  0  0  0
   -3.1456  -39.5686   17.0690 C   0  0  0  0  0  0  0  0  0  0  0  0
   -4.6093  -39.6274   16.4987 C   0  0  0  0  0  0  0  0  0  0  0  0
   -5.2956  -40.6087   16.8105 O   0  0  0  0  0  0  0  0  0  0  0  0
   -4.9190  -38.6675   15.7786 O   0  0  0  0  0  0  0  0  0  0  0  0
   -4.9390  -41.2717   17.3683 H   0  0  0  0  0  0  0  0  0  0  0  0
    0.0340  -42.4995   14.6793 N   0  0  0  0  0  0  0  0  0  0  0  0
   -0.2877  -42.6954   13.7314 H   0  0  0  0  0  0  0  0  0  0  0  0
    1.4259  -43.3773   14.8953 S   0  0  0  0  0  0  0  0  0  0  0  0
    2.5578  -42.6006   14.5546 O   0  0  0  0  0  0  0  0  0  0  0  0
    1.4312  -43.8985   16.2192 O   0  0  0  0  0  0  0  0  0  0  0  0
   -0.0430  -49.4083    9.5011 O   0  0  0  0  0  0  0  0  0  0  0  0
   -0.0853  -48.4344   10.2305 C   0  0  0  0  0  0  0  0  0  0  0  0
    1.0420  -48.1281   11.0025 N   0  0  0  0  0  0  0  0  0  0  0  0
    1.1577  -47.0493   11.8827 C   0  0  0  0  0  0  0  0  0  0  0  0
    0.0412  -46.1629   12.0339 C   0  0  0  0  0  0  0  0  0  0  0  0
   -1.1438  -46.4802   11.2302 C   0  0  0  0  0  0  0  0  0  0  0  0
   -1.2261  -47.5266   10.3865 C   0  0  0  0  0  0  0  0  0  0  0  0
    0.1945  -45.0706   12.9550 C   0  0  0  0  0  0  0  0  0  0  0  0
    1.3336  -44.7620   13.7039 C   0  0  0  0  0  0  0  0  0  0  0  0
    2.4050  -45.6829   13.5374 C   0  0  0  0  0  0  0  0  0  0  0  0
    2.3331  -46.7563   12.6710 C   0  0  0  0  0  0  0  0  0  0  0  0
    1.8206  -48.7246   10.9178 H   0  0  0  0  0  0  0  0  0  0  0  0
 29 30  2  0  0  0
 30 35  1  0  0  0
 30 31  1  0  0  0
 35 34  2  0  0  0
 31 32  1  0  0  0
 34 33  1  0  0  0
 32 33  2  0  0  0
 32 39  1  0  0  0
 33 36  1  0  0  0
 39 38  2  0  0  0
 36 37  2  0  0  0
 16 17  2  0  0  0
 16 18  1  0  0  0
 38 37  1  0  0  0
 37 26  1  0  0  0
 17 15  1  0  0  0
 18 14  1  0  0  0
 28 26  2  0  0  0
 27 26  2  0  0  0
 26 24  1  0  0  0
 15 14  2  0  0  0
 14 13  1  0  0  0
 19 11  1  0  0  0
 19 20  1  0  0  0
 24  1  1  0  0  0
 12 10  2  0  0  0
 11 10  1  0  0  0
 11 13  1  0  0  0
 10  1  1  0  0  0
  1  3  1  0  0  0
 22 20  2  0  0  0
 20 21  1  0  0  0
  8  9  1  0  0  0
  8  2  1  0  0  0
  3  2  2  0  0  0
  3  7  1  0  0  0
  2  4  1  0  0  0
  7  6  2  0  0  0
  4  5  2  0  0  0
  6  5  1  0  0  0
 24 25  1  0  0  0
 31 40  1  0  0  0
 21 23  1  0  0  0
M  END
> <minimizedAffinity>
-9.16187

$$$$
6MA5_J9V_A_1101


 40 43  0  0  0  0  0  0  0  0999 V2000
   -1.1985  -43.9078   14.1092 C   0  0  0  0  0  0  0  0  0  0  0  0
   -1.4361  -46.0115   15.5471 C   0  0  0  0  0  0  0  0  0  0  0  0
   -1.3308  -45.4165   14.2541 C   0  0  0  0  0  0  0  0  0  0  0  0
   -1.5255  -47.4073   15.6657 C   0  0  0  0  0  0  0  0  0  0  0  0
   -1.5273  -48.2283   14.5380 C   0  0  0  0  0  0  0  0  0  0  0  0
   -1.4277  -47.6629   13.2726 C   0  0  0  0  0  0  0  0  0  0  0  0
   -1.3260  -46.2726   13.1508 C   0  0  0  0  0  0  0  0  0  0  0  0
   -1.4304  -45.1811   16.6492 O   0  0  0  0  0  0  0  0  0  0  0  0
   -1.3507  -45.7053   17.9700 C   0  0  0  0  0  0  0  0  0  0  0  0
   -2.5894  -43.1489   14.1267 C   0  0  0  0  0  0  0  0  0  0  0  0
   -2.7490  -41.8672   14.7118 N   0  0  0  0  0  0  0  0  0  0  0  0
   -3.5254  -43.7190   13.6063 O   0  0  0  0  0  0  0  0  0  0  0  0
   -1.6008  -41.1541   15.3306 C   0  0  0  0  0  0  0  0  0  0  0  0
   -1.8538  -40.7007   16.7939 C   0  0  0  0  0  0  0  0  0  0  0  0
   -2.0124  -41.4369   17.9538 C   0  0  0  0  0  0  0  0  0  0  0  0
   -2.2450  -39.3142   18.8889 C   0  0  0  0  0  0  0  0  0  0  0  0
   -2.2368  -40.6503   19.1467 C   0  0  0  0  0  0  0  0  0  0  0  0
   -1.9980  -39.0454   17.2366 S   0  0  0  0  0  0  0  0  0  0  0  0
   -4.0717  -41.1813   14.6872 C   0  0  0  0  0  0  0  0  0  0  0  0
   -4.0387  -39.8609   13.8349 C   0  0  0  0  0  0  0  0  0  0  0  0
   -3.5577  -39.9373   12.6973 O   0  0  0  0  0  0  0  0  0  0  0  0
   -4.5015  -38.8659   14.4109 O   0  0  0  0  0  0  0  0  0  0  0  0
   -3.2392  -40.7585   12.3776 H   0  0  0  0  0  0  0  0  0  0  0  0
   -0.4679  -43.5653   12.8651 N   0  0  0  0  0  0  0  0  0  0  0  0
   -0.5871  -44.3563   12.2322 H   0  0  0  0  0  0  0  0  0  0  0  0
    1.1559  -43.2233   12.8911 S   0  0  0  0  0  0  0  0  0  0  0  0
    1.5723  -42.7073   11.6417 O   0  0  0  0  0  0  0  0  0  0  0  0
    1.4234  -42.3827   14.0075 O   0  0  0  0  0  0  0  0  0  0  0  0
    5.2725  -50.0492   14.9131 O   0  0  0  0  0  0  0  0  0  0  0  0
    4.6960  -48.9772   14.8857 C   0  0  0  0  0  0  0  0  0  0  0  0
    4.1443  -48.5457   13.6732 N   0  0  0  0  0  0  0  0  0  0  0  0
    3.4512  -47.3492   13.4738 C   0  0  0  0  0  0  0  0  0  0  0  0
    3.2765  -46.4625   14.5865 C   0  0  0  0  0  0  0  0  0  0  0  0
    3.8548  -46.9073   15.8588 C   0  0  0  0  0  0  0  0  0  0  0  0
    4.5160  -48.0691   16.0227 C   0  0  0  0  0  0  0  0  0  0  0  0
    2.5668  -45.2374   14.3404 C   0  0  0  0  0  0  0  0  0  0  0  0
    2.0010  -44.8277   13.1298 C   0  0  0  0  0  0  0  0  0  0  0  0
    2.2210  -45.7291   12.0516 C   0  0  0  0  0  0  0  0  0  0  0  0
    2.8932  -46.9254   12.2097 C   0  0  0  0  0  0  0  0  0  0  0  0
    4.2543  -49.1368   12.8936 H   0  0  0  0  0  0  0  0  0  0  0  0
 29 30  2  0  0  0
 30 35  1  0  0  0
 30 31  1  0  0  0
 35 34  2  0  0  0
 31 32  1  0  0  0
 34 33  1  0  0  0
 32 33  2  0  0  0
 32 39  1  0  0  0
 33 36  1  0  0  0
 39 38  2  0  0  0
 36 37  2  0  0  0
 16 17  2  0  0  0
 16 18  1  0  0  0
 38 37  1  0  0  0
 37 26  1  0  0  0
 17 15  1  0  0  0
 18 14  1  0  0  0
 28 26  2  0  0  0
 27 26  2  0  0  0
 26 24  1  0  0  0
 15 14  2  0  0  0
 14 13  1  0  0  0
 19 11  1  0  0  0
 19 20  1  0  0  0
 24  1  1  0  0  0
 12 10  2  0  0  0
 11 10  1  0  0  0
 11 13  1  0  0  0
 10  1  1  0  0  0
  1  3  1  0  0  0
 22 20  2  0  0  0
 20 21  1  0  0  0
  8  9  1  0  0  0
  8  2  1  0  0  0
  3  2  2  0  0  0
  3  7  1  0  0  0
  2  4  1  0  0  0
  7  6  2  0  0  0
  4  5  2  0  0  0
  6  5  1  0  0  0
 24 25  1  0  0  0
 31 40  1  0  0  0
 21 23  1  0  0  0
M  END
> <minimizedAffinity>
-8.97021

$$$$
6MA5_J9V_A_1101


 40 43  0  0  0  0  0  0  0  0999 V2000
   -0.2086  -44.7359   16.6602 C   0  0  0  0  0  0  0  0  0  0  0  0
   -2.3176  -45.2456   15.3030 C   0  0  0  0  0  0  0  0  0  0  0  0
   -1.1127  -45.7057   15.9141 C   0  0  0  0  0  0  0  0  0  0  0  0
   -3.1571  -46.1583   14.6455 C   0  0  0  0  0  0  0  0  0  0  0  0
   -2.8286  -47.5117   14.5652 C   0  0  0  0  0  0  0  0  0  0  0  0
   -1.6576  -47.9737   15.1535 C   0  0  0  0  0  0  0  0  0  0  0  0
   -0.8242  -47.0689   15.8206 C   0  0  0  0  0  0  0  0  0  0  0  0
   -2.6243  -43.9034   15.3961 O   0  0  0  0  0  0  0  0  0  0  0  0
   -2.9472  -43.1365   14.2415 C   0  0  0  0  0  0  0  0  0  0  0  0
   -0.8097  -44.2521   18.0443 C   0  0  0  0  0  0  0  0  0  0  0  0
   -0.6249  -44.9773   19.2486 N   0  0  0  0  0  0  0  0  0  0  0  0
   -1.4411  -43.2163   18.0293 O   0  0  0  0  0  0  0  0  0  0  0  0
    0.1670  -46.2349   19.2772 C   0  0  0  0  0  0  0  0  0  0  0  0
    1.6943  -46.0237   19.0930 C   0  0  0  0  0  0  0  0  0  0  0  0
    2.5210  -44.9951   19.5065 C   0  0  0  0  0  0  0  0  0  0  0  0
    4.1390  -46.3003   18.4516 C   0  0  0  0  0  0  0  0  0  0  0  0
    3.9119  -45.1495   19.1414 C   0  0  0  0  0  0  0  0  0  0  0  0
    2.6880  -47.1481   18.2533 S   0  0  0  0  0  0  0  0  0  0  0  0
   -1.1911  -44.4739   20.5319 C   0  0  0  0  0  0  0  0  0  0  0  0
   -0.2662  -43.3958   21.2052 C   0  0  0  0  0  0  0  0  0  0  0  0
   -0.1476  -42.3118   20.6202 O   0  0  0  0  0  0  0  0  0  0  0  0
    0.2592  -43.7604   22.2668 O   0  0  0  0  0  0  0  0  0  0  0  0
   -0.6038  -42.1612   19.8157 H   0  0  0  0  0  0  0  0  0  0  0  0
    0.0973  -43.5545   15.8179 N   0  0  0  0  0  0  0  0  0  0  0  0
   -0.6836  -43.4509   15.1700 H   0  0  0  0  0  0  0  0  0  0  0  0
    1.4804  -43.4890   14.9030 S   0  0  0  0  0  0  0  0  0  0  0  0
    1.5226  -42.2885   14.1564 O   0  0  0  0  0  0  0  0  0  0  0  0
    2.5981  -43.7054   15.7564 O   0  0  0  0  0  0  0  0  0  0  0  0
   -0.1162  -49.4603    9.4786 O   0  0  0  0  0  0  0  0  0  0  0  0
   -0.1339  -48.4840   10.2059 C   0  0  0  0  0  0  0  0  0  0  0  0
    0.9858  -48.2262   11.0061 N   0  0  0  0  0  0  0  0  0  0  0  0
    1.1268  -47.1518   11.8879 C   0  0  0  0  0  0  0  0  0  0  0  0
    0.0471  -46.2166   12.0098 C   0  0  0  0  0  0  0  0  0  0  0  0
   -1.1299  -46.4828   11.1764 C   0  0  0  0  0  0  0  0  0  0  0  0
   -1.2370  -47.5262   10.3317 C   0  0  0  0  0  0  0  0  0  0  0  0
    0.2251  -45.1302   12.9335 C   0  0  0  0  0  0  0  0  0  0  0  0
    1.3573  -44.8708   13.7110 C   0  0  0  0  0  0  0  0  0  0  0  0
    2.3907  -45.8385   13.5727 C   0  0  0  0  0  0  0  0  0  0  0  0
    2.2935  -46.9095   12.7057 C   0  0  0  0  0  0  0  0  0  0  0  0
    1.7391  -48.8568   10.9418 H   0  0  0  0  0  0  0  0  0  0  0  0
 29 30  2  0  0  0
 30 35  1  0  0  0
 30 31  1  0  0  0
 35 34  2  0  0  0
 31 32  1  0  0  0
 34 33  1  0  0  0
 32 33  2  0  0  0
 32 39  1  0  0  0
 33 36  1  0  0  0
 39 38  2  0  0  0
 36 37  2  0  0  0
 16 17  2  0  0  0
 16 18  1  0  0  0
 38 37  1  0  0  0
 37 26  1  0  0  0
 17 15  1  0  0  0
 18 14  1  0  0  0
 28 26  2  0  0  0
 27 26  2  0  0  0
 26 24  1  0  0  0
 15 14  2  0  0  0
 14 13  1  0  0  0
 19 11  1  0  0  0
 19 20  1  0  0  0
 24  1  1  0  0  0
 12 10  2  0  0  0
 11 10  1  0  0  0
 11 13  1  0  0  0
 10  1  1  0  0  0
  1  3  1  0  0  0
 22 20  2  0  0  0
 20 21  1  0  0  0
  8  9  1  0  0  0
  8  2  1  0  0  0
  3  2  2  0  0  0
  3  7  1  0  0  0
  2  4  1  0  0  0
  7  6  2  0  0  0
  4  5  2  0  0  0
  6  5  1  0  0  0
 24 25  1  0  0  0
 31 40  1  0  0  0
 21 23  1  0  0  0
M  END
> <minimizedAffinity>
-8.51969

$$$$
6MA5_J9V_A_1101


 40 43  0  0  0  0  0  0  0  0999 V2000
    1.1399  -45.3091   16.3782 C   0  0  0  0  0  0  0  0  0  0  0  0
   -1.4076  -45.0687   16.3328 C   0  0  0  0  0  0  0  0  0  0  0  0
   -0.2462  -45.8552   16.0695 C   0  0  0  0  0  0  0  0  0  0  0  0
   -2.6809  -45.5988   16.0723 C   0  0  0  0  0  0  0  0  0  0  0  0
   -2.8342  -46.8813   15.5453 C   0  0  0  0  0  0  0  0  0  0  0  0
   -1.7123  -47.6577   15.2818 C   0  0  0  0  0  0  0  0  0  0  0  0
   -0.4416  -47.1374   15.5518 C   0  0  0  0  0  0  0  0  0  0  0  0
   -1.2333  -43.8037   16.8558 O   0  0  0  0  0  0  0  0  0  0  0  0
   -2.0795  -42.7237   16.4774 C   0  0  0  0  0  0  0  0  0  0  0  0
    1.6033  -45.5736   17.8703 C   0  0  0  0  0  0  0  0  0  0  0  0
    2.3965  -46.6913   18.2334 N   0  0  0  0  0  0  0  0  0  0  0  0
    1.2479  -44.7635   18.7005 O   0  0  0  0  0  0  0  0  0  0  0  0
    2.8540  -47.6746   17.2168 C   0  0  0  0  0  0  0  0  0  0  0  0
    4.1818  -47.2837   16.5131 C   0  0  0  0  0  0  0  0  0  0  0  0
    4.6684  -46.0496   16.1221 C   0  0  0  0  0  0  0  0  0  0  0  0
    6.4632  -47.3461   15.3924 C   0  0  0  0  0  0  0  0  0  0  0  0
    5.9654  -46.0829   15.4829 C   0  0  0  0  0  0  0  0  0  0  0  0
    5.3646  -48.4466   16.0597 S   0  0  0  0  0  0  0  0  0  0  0  0
    2.8268  -46.8894   19.6463 C   0  0  0  0  0  0  0  0  0  0  0  0
    4.1890  -46.1693   19.9575 C   0  0  0  0  0  0  0  0  0  0  0  0
    4.1954  -44.9328   19.9104 O   0  0  0  0  0  0  0  0  0  0  0  0
    5.1284  -46.9358   20.2143 O   0  0  0  0  0  0  0  0  0  0  0  0
    3.4090  -44.4678   19.7023 H   0  0  0  0  0  0  0  0  0  0  0  0
    1.2028  -43.8550   16.0949 N   0  0  0  0  0  0  0  0  0  0  0  0
    0.2638  -43.4886   16.2515 H   0  0  0  0  0  0  0  0  0  0  0  0
    1.6872  -43.2909   14.6112 S   0  0  0  0  0  0  0  0  0  0  0  0
    0.8144  -42.2734   14.1602 O   0  0  0  0  0  0  0  0  0  0  0  0
    3.0566  -42.9139   14.6955 O   0  0  0  0  0  0  0  0  0  0  0  0
   -0.1124  -49.4596    9.4792 O   0  0  0  0  0  0  0  0  0  0  0  0
   -0.1114  -48.4699   10.1885 C   0  0  0  0  0  0  0  0  0  0  0  0
    1.0680  -48.1329   10.8639 N   0  0  0  0  0  0  0  0  0  0  0  0
    1.2368  -47.0331   11.7088 C   0  0  0  0  0  0  0  0  0  0  0  0
    0.1235  -46.1568   11.9269 C   0  0  0  0  0  0  0  0  0  0  0  0
   -1.1157  -46.5061   11.2245 C   0  0  0  0  0  0  0  0  0  0  0  0
   -1.2489  -47.5723   10.4126 C   0  0  0  0  0  0  0  0  0  0  0  0
    0.3327  -45.0421   12.8094 C   0  0  0  0  0  0  0  0  0  0  0  0
    1.5219  -44.7033   13.4609 C   0  0  0  0  0  0  0  0  0  0  0  0
    2.5895  -45.6151   13.2318 C   0  0  0  0  0  0  0  0  0  0  0  0
    2.4654  -46.7086   12.3971 C   0  0  0  0  0  0  0  0  0  0  0  0
    1.8456  -48.7220   10.7320 H   0  0  0  0  0  0  0  0  0  0  0  0
 29 30  2  0  0  0
 30 35  1  0  0  0
 30 31  1  0  0  0
 35 34  2  0  0  0
 31 32  1  0  0  0
 34 33  1  0  0  0
 32 33  2  0  0  0
 32 39  1  0  0  0
 33 36  1  0  0  0
 39 38  2  0  0  0
 36 37  2  0  0  0
 16 17  2  0  0  0
 16 18  1  0  0  0
 38 37  1  0  0  0
 37 26  1  0  0  0
 17 15  1  0  0  0
 18 14  1  0  0  0
 28 26  2  0  0  0
 27 26  2  0  0  0
 26 24  1  0  0  0
 15 14  2  0  0  0
 14 13  1  0  0  0
 19 11  1  0  0  0
 19 20  1  0  0  0
 24  1  1  0  0  0
 12 10  2  0  0  0
 11 10  1  0  0  0
 11 13  1  0  0  0
 10  1  1  0  0  0
  1  3  1  0  0  0
 22 20  2  0  0  0
 20 21  1  0  0  0
  8  9  1  0  0  0
  8  2  1  0  0  0
  3  2  2  0  0  0
  3  7  1  0  0  0
  2  4  1  0  0  0
  7  6  2  0  0  0
  4  5  2  0  0  0
  6  5  1  0  0  0
 24 25  1  0  0  0
 31 40  1  0  0  0
 21 23  1  0  0  0
M  END
> <minimizedAffinity>
-8.46228

$$$$
6MA5_J9V_A_1101


 40 43  0  0  0  0  0  0  0  0999 V2000
   -0.9790  -43.7176   14.5169 C   0  0  0  0  0  0  0  0  0  0  0  0
   -1.1743  -46.1960   15.1243 C   0  0  0  0  0  0  0  0  0  0  0  0
   -1.7465  -45.0311   14.5304 C   0  0  0  0  0  0  0  0  0  0  0  0
   -1.8816  -47.4082   15.1005 C   0  0  0  0  0  0  0  0  0  0  0  0
   -3.1456  -47.4944   14.5169 C   0  0  0  0  0  0  0  0  0  0  0  0
   -3.7162  -46.3679   13.9369 C   0  0  0  0  0  0  0  0  0  0  0  0
   -3.0089  -45.1605   13.9476 C   0  0  0  0  0  0  0  0  0  0  0  0
    0.0778  -46.0890   15.6943 O   0  0  0  0  0  0  0  0  0  0  0  0
    0.7783  -47.2363   16.1617 C   0  0  0  0  0  0  0  0  0  0  0  0
   -1.8550  -42.4716   14.9541 C   0  0  0  0  0  0  0  0  0  0  0  0
   -2.0101  -42.0895   16.3106 N   0  0  0  0  0  0  0  0  0  0  0  0
   -2.3923  -41.8468   14.0637 O   0  0  0  0  0  0  0  0  0  0  0  0
   -1.3358  -42.8376   17.4040 C   0  0  0  0  0  0  0  0  0  0  0  0
   -2.2862  -43.7537   18.2216 C   0  0  0  0  0  0  0  0  0  0  0  0
   -2.6217  -45.0851   18.0565 C   0  0  0  0  0  0  0  0  0  0  0  0
   -3.9287  -44.6578   19.9389 C   0  0  0  0  0  0  0  0  0  0  0  0
   -3.5573  -45.6012   19.0314 C   0  0  0  0  0  0  0  0  0  0  0  0
   -3.1608  -43.1907   19.5908 S   0  0  0  0  0  0  0  0  0  0  0  0
   -2.8272  -40.8976   16.6746 C   0  0  0  0  0  0  0  0  0  0  0  0
   -1.9505  -39.7390   17.2748 C   0  0  0  0  0  0  0  0  0  0  0  0
   -2.0905  -39.4939   18.4796 O   0  0  0  0  0  0  0  0  0  0  0  0
   -1.2050  -39.1821   16.4563 O   0  0  0  0  0  0  0  0  0  0  0  0
   -2.6940  -39.9945   18.9926 H   0  0  0  0  0  0  0  0  0  0  0  0
   -0.4009  -43.4648   13.1750 N   0  0  0  0  0  0  0  0  0  0  0  0
   -0.6146  -44.2856   12.6084 H   0  0  0  0  0  0  0  0  0  0  0  0
    1.2206  -43.1683   12.9821 S   0  0  0  0  0  0  0  0  0  0  0  0
    1.4895  -42.7303   11.6645 O   0  0  0  0  0  0  0  0  0  0  0  0
    1.6432  -42.2788   14.0090 O   0  0  0  0  0  0  0  0  0  0  0  0
    5.7829  -49.8639   14.3904 O   0  0  0  0  0  0  0  0  0  0  0  0
    5.2956  -48.7489   14.3495 C   0  0  0  0  0  0  0  0  0  0  0  0
    4.1262  -48.5574   13.6036 N   0  0  0  0  0  0  0  0  0  0  0  0
    3.4419  -47.3481   13.4580 C   0  0  0  0  0  0  0  0  0  0  0  0
    3.9587  -46.1828   14.1135 C   0  0  0  0  0  0  0  0  0  0  0  0
    5.1852  -46.3762   14.8941 C   0  0  0  0  0  0  0  0  0  0  0  0
    5.8225  -47.5559   15.0195 C   0  0  0  0  0  0  0  0  0  0  0  0
    3.2330  -44.9557   13.9328 C   0  0  0  0  0  0  0  0  0  0  0  0
    2.0535  -44.7816   13.2033 C   0  0  0  0  0  0  0  0  0  0  0  0
    1.5937  -45.9603   12.5530 C   0  0  0  0  0  0  0  0  0  0  0  0
    2.2367  -47.1764   12.6790 C   0  0  0  0  0  0  0  0  0  0  0  0
    3.7539  -49.3431   13.1416 H   0  0  0  0  0  0  0  0  0  0  0  0
 29 30  2  0  0  0
 30 35  1  0  0  0
 30 31  1  0  0  0
 35 34  2  0  0  0
 31 32  1  0  0  0
 34 33  1  0  0  0
 32 33  2  0  0  0
 32 39  1  0  0  0
 33 36  1  0  0  0
 39 38  2  0  0  0
 36 37  2  0  0  0
 16 17  2  0  0  0
 16 18  1  0  0  0
 38 37  1  0  0  0
 37 26  1  0  0  0
 17 15  1  0  0  0
 18 14  1  0  0  0
 28 26  2  0  0  0
 27 26  2  0  0  0
 26 24  1  0  0  0
 15 14  2  0  0  0
 14 13  1  0  0  0
 19 11  1  0  0  0
 19 20  1  0  0  0
 24  1  1  0  0  0
 12 10  2  0  0  0
 11 10  1  0  0  0
 11 13  1  0  0  0
 10  1  1  0  0  0
  1  3  1  0  0  0
 22 20  2  0  0  0
 20 21  1  0  0  0
  8  9  1  0  0  0
  8  2  1  0  0  0
  3  2  2  0  0  0
  3  7  1  0  0  0
  2  4  1  0  0  0
  7  6  2  0  0  0
  4  5  2  0  0  0
  6  5  1  0  0  0
 24 25  1  0  0  0
 31 40  1  0  0  0
 21 23  1  0  0  0
M  END
> <minimizedAffinity>
-8.40322

$$$$
6MA5_J9V_A_1101


 40 43  0  0  0  0  0  0  0  0999 V2000
   -1.5807  -43.6848   13.9967 C   0  0  0  0  0  0  0  0  0  0  0  0
    0.2160  -43.7967   15.8158 C   0  0  0  0  0  0  0  0  0  0  0  0
   -1.1134  -44.0892   15.3869 C   0  0  0  0  0  0  0  0  0  0  0  0
    0.6421  -44.2046   17.0894 C   0  0  0  0  0  0  0  0  0  0  0  0
   -0.2171  -44.8820   17.9548 C   0  0  0  0  0  0  0  0  0  0  0  0
   -1.5151  -45.1716   17.5517 C   0  0  0  0  0  0  0  0  0  0  0  0
   -1.9396  -44.7776   16.2779 C   0  0  0  0  0  0  0  0  0  0  0  0
    1.0499  -43.1276   14.9434 O   0  0  0  0  0  0  0  0  0  0  0  0
    2.4549  -43.3548   14.9419 C   0  0  0  0  0  0  0  0  0  0  0  0
   -0.7604  -44.3760   12.8304 C   0  0  0  0  0  0  0  0  0  0  0  0
   -0.8220  -45.7703   12.5804 N   0  0  0  0  0  0  0  0  0  0  0  0
   -0.0699  -43.6487   12.1477 O   0  0  0  0  0  0  0  0  0  0  0  0
   -1.6839  -46.6629   13.3990 C   0  0  0  0  0  0  0  0  0  0  0  0
   -0.9070  -47.4984   14.4523 C   0  0  0  0  0  0  0  0  0  0  0  0
   -1.3466  -48.4505   15.3538 C   0  0  0  0  0  0  0  0  0  0  0  0
    0.9153  -48.4989   15.9161 C   0  0  0  0  0  0  0  0  0  0  0  0
   -0.3118  -49.0199   16.1888 C   0  0  0  0  0  0  0  0  0  0  0  0
    0.7895  -47.3435   14.6862 S   0  0  0  0  0  0  0  0  0  0  0  0
   -0.0490  -46.3749   11.4589 C   0  0  0  0  0  0  0  0  0  0  0  0
   -0.9007  -47.4164   10.6459 C   0  0  0  0  0  0  0  0  0  0  0  0
   -1.8347  -46.9718    9.9668 O   0  0  0  0  0  0  0  0  0  0  0  0
   -0.5397  -48.5941   10.7830 O   0  0  0  0  0  0  0  0  0  0  0  0
   -2.0037  -46.0503    9.9489 H   0  0  0  0  0  0  0  0  0  0  0  0
   -1.5200  -42.2122   13.8338 N   0  0  0  0  0  0  0  0  0  0  0  0
   -0.7555  -41.8867   14.4253 H   0  0  0  0  0  0  0  0  0  0  0  0
   -2.8295  -41.2559   14.1876 S   0  0  0  0  0  0  0  0  0  0  0  0
   -2.9552  -40.2180   13.2349 O   0  0  0  0  0  0  0  0  0  0  0  0
   -3.9748  -42.0891   14.3231 O   0  0  0  0  0  0  0  0  0  0  0  0
   -1.3148  -38.7243   21.8639 O   0  0  0  0  0  0  0  0  0  0  0  0
   -1.5111  -39.3544   20.8408 C   0  0  0  0  0  0  0  0  0  0  0  0
   -1.7397  -38.6475   19.6538 N   0  0  0  0  0  0  0  0  0  0  0  0
   -1.9765  -39.2162   18.3999 C   0  0  0  0  0  0  0  0  0  0  0  0
   -1.9975  -40.6451   18.2862 C   0  0  0  0  0  0  0  0  0  0  0  0
   -1.7618  -41.3913   19.5266 C   0  0  0  0  0  0  0  0  0  0  0  0
   -1.5328  -40.8157   20.7224 C   0  0  0  0  0  0  0  0  0  0  0  0
   -2.2534  -41.1930   16.9826 C   0  0  0  0  0  0  0  0  0  0  0  0
   -2.4583  -40.4766   15.8001 C   0  0  0  0  0  0  0  0  0  0  0  0
   -2.4515  -39.0640   15.9685 C   0  0  0  0  0  0  0  0  0  0  0  0
   -2.2126  -38.4633   17.1891 C   0  0  0  0  0  0  0  0  0  0  0  0
   -1.7331  -37.6645   19.7076 H   0  0  0  0  0  0  0  0  0  0  0  0
 29 30  2  0  0  0
 30 35  1  0  0  0
 30 31  1  0  0  0
 35 34  2  0  0  0
 31 32  1  0  0  0
 34 33  1  0  0  0
 32 33  2  0  0  0
 32 39  1  0  0  0
 33 36  1  0  0  0
 39 38  2  0  0  0
 36 37  2  0  0  0
 16 17  2  0  0  0
 16 18  1  0  0  0
 38 37  1  0  0  0
 37 26  1  0  0  0
 17 15  1  0  0  0
 18 14  1  0  0  0
 28 26  2  0  0  0
 27 26  2  0  0  0
 26 24  1  0  0  0
 15 14  2  0  0  0
 14 13  1  0  0  0
 19 11  1  0  0  0
 19 20  1  0  0  0
 24  1  1  0  0  0
 12 10  2  0  0  0
 11 10  1  0  0  0
 11 13  1  0  0  0
 10  1  1  0  0  0
  1  3  1  0  0  0
 22 20  2  0  0  0
 20 21  1  0  0  0
  8  9  1  0  0  0
  8  2  1  0  0  0
  3  2  2  0  0  0
  3  7  1  0  0  0
  2  4  1  0  0  0
  7  6  2  0  0  0
  4  5  2  0  0  0
  6  5  1  0  0  0
 24 25  1  0  0  0
 31 40  1  0  0  0
 21 23  1  0  0  0
M  END
> <minimizedAffinity>
-8.24872

$$$$
6MA5_J9V_A_1101


 40 43  0  0  0  0  0  0  0  0999 V2000
   -0.2936  -44.2759   15.1866 C   0  0  0  0  0  0  0  0  0  0  0  0
   -0.7654  -46.7885   15.0663 C   0  0  0  0  0  0  0  0  0  0  0  0
   -1.2363  -45.4462   14.9496 C   0  0  0  0  0  0  0  0  0  0  0  0
   -1.6394  -47.8572   14.8134 C   0  0  0  0  0  0  0  0  0  0  0  0
   -2.9705  -47.6326   14.4616 C   0  0  0  0  0  0  0  0  0  0  0  0
   -3.4436  -46.3312   14.3464 C   0  0  0  0  0  0  0  0  0  0  0  0
   -2.5720  -45.2629   14.5856 C   0  0  0  0  0  0  0  0  0  0  0  0
    0.5552  -46.9879   15.4135 O   0  0  0  0  0  0  0  0  0  0  0  0
    1.0066  -48.2401   15.9172 C   0  0  0  0  0  0  0  0  0  0  0  0
   -0.7635  -43.3152   16.3559 C   0  0  0  0  0  0  0  0  0  0  0  0
   -0.7184  -43.6992   17.7200 N   0  0  0  0  0  0  0  0  0  0  0  0
   -1.1659  -42.2185   16.0284 O   0  0  0  0  0  0  0  0  0  0  0  0
   -0.2049  -45.0330   18.1287 C   0  0  0  0  0  0  0  0  0  0  0  0
    1.2877  -45.0309   18.5566 C   0  0  0  0  0  0  0  0  0  0  0  0
    2.4394  -45.2409   17.8205 C   0  0  0  0  0  0  0  0  0  0  0  0
    3.4457  -44.8864   19.8932 C   0  0  0  0  0  0  0  0  0  0  0  0
    3.6682  -45.1609   18.5791 C   0  0  0  0  0  0  0  0  0  0  0  0
    1.7836  -44.7464   20.1783 S   0  0  0  0  0  0  0  0  0  0  0  0
   -1.1514  -42.7551   18.7887 C   0  0  0  0  0  0  0  0  0  0  0  0
   -2.5797  -43.1043   19.3447 C   0  0  0  0  0  0  0  0  0  0  0  0
   -2.6308  -43.7357   20.4077 O   0  0  0  0  0  0  0  0  0  0  0  0
   -3.5172  -42.7064   18.6386 O   0  0  0  0  0  0  0  0  0  0  0  0
   -1.8395  -43.9785   20.8468 H   0  0  0  0  0  0  0  0  0  0  0  0
   -0.1184  -43.4870   13.9433 N   0  0  0  0  0  0  0  0  0  0  0  0
   -0.6482  -43.9693   13.2173 H   0  0  0  0  0  0  0  0  0  0  0  0
    1.3908  -43.2019   13.3145 S   0  0  0  0  0  0  0  0  0  0  0  0
    1.3005  -42.8766   11.9410 O   0  0  0  0  0  0  0  0  0  0  0  0
    2.0403  -42.2265   14.1215 O   0  0  0  0  0  0  0  0  0  0  0  0
    6.1533  -49.7994   14.5063 O   0  0  0  0  0  0  0  0  0  0  0  0
    5.5993  -48.7157   14.5409 C   0  0  0  0  0  0  0  0  0  0  0  0
    4.5464  -48.4744   13.6499 N   0  0  0  0  0  0  0  0  0  0  0  0
    3.8074  -47.2920   13.5634 C   0  0  0  0  0  0  0  0  0  0  0  0
    4.1336  -46.2115   14.4473 C   0  0  0  0  0  0  0  0  0  0  0  0
    5.2375  -46.4569   15.3810 C   0  0  0  0  0  0  0  0  0  0  0  0
    5.9313  -47.6095   15.4443 C   0  0  0  0  0  0  0  0  0  0  0  0
    3.3578  -45.0084   14.3222 C   0  0  0  0  0  0  0  0  0  0  0  0
    2.2938  -44.7872   13.4433 C   0  0  0  0  0  0  0  0  0  0  0  0
    2.0240  -45.8788   12.5719 C   0  0  0  0  0  0  0  0  0  0  0  0
    2.7257  -47.0671   12.6317 C   0  0  0  0  0  0  0  0  0  0  0  0
    4.3061  -49.2011   13.0306 H   0  0  0  0  0  0  0  0  0  0  0  0
 29 30  2  0  0  0
 30 35  1  0  0  0
 30 31  1  0  0  0
 35 34  2  0  0  0
 31 32  1  0  0  0
 34 33  1  0  0  0
 32 33  2  0  0  0
 32 39  1  0  0  0
 33 36  1  0  0  0
 39 38  2  0  0  0
 36 37  2  0  0  0
 16 17  2  0  0  0
 16 18  1  0  0  0
 38 37  1  0  0  0
 37 26  1  0  0  0
 17 15  1  0  0  0
 18 14  1  0  0  0
 28 26  2  0  0  0
 27 26  2  0  0  0
 26 24  1  0  0  0
 15 14  2  0  0  0
 14 13  1  0  0  0
 19 11  1  0  0  0
 19 20  1  0  0  0
 24  1  1  0  0  0
 12 10  2  0  0  0
 11 10  1  0  0  0
 11 13  1  0  0  0
 10  1  1  0  0  0
  1  3  1  0  0  0
 22 20  2  0  0  0
 20 21  1  0  0  0
  8  9  1  0  0  0
  8  2  1  0  0  0
  3  2  2  0  0  0
  3  7  1  0  0  0
  2  4  1  0  0  0
  7  6  2  0  0  0
  4  5  2  0  0  0
  6  5  1  0  0  0
 24 25  1  0  0  0
 31 40  1  0  0  0
 21 23  1  0  0  0
M  END
> <minimizedAffinity>
-7.89349

$$$$
6MA5_J9V_A_1101


 40 43  0  0  0  0  0  0  0  0999 V2000
   -1.8282  -44.2964   16.8459 C   0  0  0  0  0  0  0  0  0  0  0  0
   -0.6428  -46.5448   16.5472 C   0  0  0  0  0  0  0  0  0  0  0  0
   -1.7628  -45.7039   16.2723 C   0  0  0  0  0  0  0  0  0  0  0  0
   -0.5822  -47.8293   15.9846 C   0  0  0  0  0  0  0  0  0  0  0  0
   -1.6071  -48.3084   15.1686 C   0  0  0  0  0  0  0  0  0  0  0  0
   -2.7048  -47.5018   14.8941 C   0  0  0  0  0  0  0  0  0  0  0  0
   -2.7630  -46.2159   15.4431 C   0  0  0  0  0  0  0  0  0  0  0  0
    0.3607  -46.0503   17.3551 O   0  0  0  0  0  0  0  0  0  0  0  0
    1.6352  -46.6802   17.4211 C   0  0  0  0  0  0  0  0  0  0  0  0
   -2.7494  -44.1816   18.1301 C   0  0  0  0  0  0  0  0  0  0  0  0
   -2.5620  -43.1771   19.1131 N   0  0  0  0  0  0  0  0  0  0  0  0
   -3.6382  -45.0007   18.2354 O   0  0  0  0  0  0  0  0  0  0  0  0
   -1.4892  -42.1571   18.9779 C   0  0  0  0  0  0  0  0  0  0  0  0
   -2.0108  -40.7318   18.6502 C   0  0  0  0  0  0  0  0  0  0  0  0
   -2.3312  -40.1423   17.4409 C   0  0  0  0  0  0  0  0  0  0  0  0
   -2.8193  -38.3272   18.8199 C   0  0  0  0  0  0  0  0  0  0  0  0
   -2.7899  -38.7738   17.5349 C   0  0  0  0  0  0  0  0  0  0  0  0
   -2.2890  -39.5474   19.8654 S   0  0  0  0  0  0  0  0  0  0  0  0
   -3.4657  -43.0942   20.2951 C   0  0  0  0  0  0  0  0  0  0  0  0
   -4.9563  -42.8126   19.8829 C   0  0  0  0  0  0  0  0  0  0  0  0
   -5.7190  -43.7856   19.8305 O   0  0  0  0  0  0  0  0  0  0  0  0
   -5.2072  -41.6227   19.6437 O   0  0  0  0  0  0  0  0  0  0  0  0
   -5.4007  -44.6421   20.0379 H   0  0  0  0  0  0  0  0  0  0  0  0
   -2.2964  -43.3354   15.8183 N   0  0  0  0  0  0  0  0  0  0  0  0
   -3.0127  -43.8180   15.2756 H   0  0  0  0  0  0  0  0  0  0  0  0
   -1.2422  -42.6715   14.7218 S   0  0  0  0  0  0  0  0  0  0  0  0
   -1.9211  -41.7752   13.8638 O   0  0  0  0  0  0  0  0  0  0  0  0
   -0.1454  -42.1087   15.4323 O   0  0  0  0  0  0  0  0  0  0  0  0
    0.4281  -49.0384    9.7922 O   0  0  0  0  0  0  0  0  0  0  0  0
   -0.0623  -48.0928   10.3818 C   0  0  0  0  0  0  0  0  0  0  0  0
    0.6938  -47.4598   11.3760 N   0  0  0  0  0  0  0  0  0  0  0  0
    0.2817  -46.3647   12.1392 C   0  0  0  0  0  0  0  0  0  0  0  0
   -1.0251  -45.8210   11.9116 C   0  0  0  0  0  0  0  0  0  0  0  0
   -1.8233  -46.4816   10.8735 C   0  0  0  0  0  0  0  0  0  0  0  0
   -1.3985  -47.5352   10.1502 C   0  0  0  0  0  0  0  0  0  0  0  0
   -1.4170  -44.7011   12.7223 C   0  0  0  0  0  0  0  0  0  0  0  0
   -0.6444  -44.0635   13.6970 C   0  0  0  0  0  0  0  0  0  0  0  0
    0.6338  -44.6533   13.9022 C   0  0  0  0  0  0  0  0  0  0  0  0
    1.0814  -45.7306   13.1626 C   0  0  0  0  0  0  0  0  0  0  0  0
    1.5938  -47.8176   11.5524 H   0  0  0  0  0  0  0  0  0  0  0  0
 29 30  2  0  0  0
 30 35  1  0  0  0
 30 31  1  0  0  0
 35 34  2  0  0  0
 31 32  1  0  0  0
 34 33  1  0  0  0
 32 33  2  0  0  0
 32 39  1  0  0  0
 33 36  1  0  0  0
 39 38  2  0  0  0
 36 37  2  0  0  0
 16 17  2  0  0  0
 16 18  1  0  0  0
 38 37  1  0  0  0
 37 26  1  0  0  0
 17 15  1  0  0  0
 18 14  1  0  0  0
 28 26  2  0  0  0
 27 26  2  0  0  0
 26 24  1  0  0  0
 15 14  2  0  0  0
 14 13  1  0  0  0
 19 11  1  0  0  0
 19 20  1  0  0  0
 24  1  1  0  0  0
 12 10  2  0  0  0
 11 10  1  0  0  0
 11 13  1  0  0  0
 10  1  1  0  0  0
  1  3  1  0  0  0
 22 20  2  0  0  0
 20 21  1  0  0  0
  8  9  1  0  0  0
  8  2  1  0  0  0
  3  2  2  0  0  0
  3  7  1  0  0  0
  2  4  1  0  0  0
  7  6  2  0  0  0
  4  5  2  0  0  0
  6  5  1  0  0  0
 24 25  1  0  0  0
 31 40  1  0  0  0
 21 23  1  0  0  0
M  END
> <minimizedAffinity>
-7.79368

$$$$
6MA5_J9V_A_1101


 40 43  0  0  0  0  0  0  0  0999 V2000
   -1.4387  -43.3782   15.0664 C   0  0  0  0  0  0  0  0  0  0  0  0
   -1.9715  -45.3177   13.4840 C   0  0  0  0  0  0  0  0  0  0  0  0
   -1.0852  -44.2751   13.8894 C   0  0  0  0  0  0  0  0  0  0  0  0
   -1.6164  -46.1570   12.4164 C   0  0  0  0  0  0  0  0  0  0  0  0
   -0.4140  -45.9828   11.7310 C   0  0  0  0  0  0  0  0  0  0  0  0
    0.4577  -44.9704   12.1132 C   0  0  0  0  0  0  0  0  0  0  0  0
    0.1129  -44.1394   13.1850 C   0  0  0  0  0  0  0  0  0  0  0  0
   -3.1546  -45.4737   14.1768 O   0  0  0  0  0  0  0  0  0  0  0  0
   -3.6637  -46.7653   14.4900 C   0  0  0  0  0  0  0  0  0  0  0  0
   -1.7546  -41.8832   14.6466 C   0  0  0  0  0  0  0  0  0  0  0  0
   -2.4612  -40.9895   15.4906 N   0  0  0  0  0  0  0  0  0  0  0  0
   -1.3560  -41.5298   13.5566 O   0  0  0  0  0  0  0  0  0  0  0  0
   -2.9321  -41.4100   16.8364 C   0  0  0  0  0  0  0  0  0  0  0  0
   -3.3464  -40.2305   17.7573 C   0  0  0  0  0  0  0  0  0  0  0  0
   -4.5822  -39.6537   17.9867 C   0  0  0  0  0  0  0  0  0  0  0  0
   -3.3289  -38.3001   19.4119 C   0  0  0  0  0  0  0  0  0  0  0  0
   -4.5744  -38.5543   18.9264 C   0  0  0  0  0  0  0  0  0  0  0  0
   -2.2135  -39.3701   18.7232 S   0  0  0  0  0  0  0  0  0  0  0  0
   -2.7181  -39.5852   15.0632 C   0  0  0  0  0  0  0  0  0  0  0  0
   -3.8995  -39.4867   14.0309 C   0  0  0  0  0  0  0  0  0  0  0  0
   -3.6722  -39.8719   12.8772 O   0  0  0  0  0  0  0  0  0  0  0  0
   -4.9489  -39.0175   14.4943 O   0  0  0  0  0  0  0  0  0  0  0  0
   -2.8271  -40.2094   12.6539 H   0  0  0  0  0  0  0  0  0  0  0  0
   -0.3504  -43.3859   16.0735 N   0  0  0  0  0  0  0  0  0  0  0  0
    0.5224  -43.2747   15.5575 H   0  0  0  0  0  0  0  0  0  0  0  0
   -0.1342  -44.6782   17.0921 S   0  0  0  0  0  0  0  0  0  0  0  0
    0.3204  -44.2395   18.3575 O   0  0  0  0  0  0  0  0  0  0  0  0
   -1.3351  -45.4410   17.1165 O   0  0  0  0  0  0  0  0  0  0  0  0
    6.5095  -48.3516   13.9303 O   0  0  0  0  0  0  0  0  0  0  0  0
    5.7143  -47.6252   14.4982 C   0  0  0  0  0  0  0  0  0  0  0  0
    4.3555  -47.9608   14.4580 N   0  0  0  0  0  0  0  0  0  0  0  0
    3.3204  -47.2395   15.0581 C   0  0  0  0  0  0  0  0  0  0  0  0
    3.6445  -46.0452   15.7817 C   0  0  0  0  0  0  0  0  0  0  0  0
    5.0659  -45.6866   15.8249 C   0  0  0  0  0  0  0  0  0  0  0  0
    6.0439  -46.4034   15.2389 C   0  0  0  0  0  0  0  0  0  0  0  0
    2.5524  -45.3254   16.3769 C   0  0  0  0  0  0  0  0  0  0  0  0
    1.2014  -45.6827   16.3488 C   0  0  0  0  0  0  0  0  0  0  0  0
    0.9280  -46.8609   15.6000 C   0  0  0  0  0  0  0  0  0  0  0  0
    1.9237  -47.6064   14.9994 C   0  0  0  0  0  0  0  0  0  0  0  0
    4.1081  -48.7756   13.9640 H   0  0  0  0  0  0  0  0  0  0  0  0
 29 30  2  0  0  0
 30 35  1  0  0  0
 30 31  1  0  0  0
 35 34  2  0  0  0
 31 32  1  0  0  0
 34 33  1  0  0  0
 32 33  2  0  0  0
 32 39  1  0  0  0
 33 36  1  0  0  0
 39 38  2  0  0  0
 36 37  2  0  0  0
 16 17  2  0  0  0
 16 18  1  0  0  0
 38 37  1  0  0  0
 37 26  1  0  0  0
 17 15  1  0  0  0
 18 14  1  0  0  0
 28 26  2  0  0  0
 27 26  2  0  0  0
 26 24  1  0  0  0
 15 14  2  0  0  0
 14 13  1  0  0  0
 19 11  1  0  0  0
 19 20  1  0  0  0
 24  1  1  0  0  0
 12 10  2  0  0  0
 11 10  1  0  0  0
 11 13  1  0  0  0
 10  1  1  0  0  0
  1  3  1  0  0  0
 22 20  2  0  0  0
 20 21  1  0  0  0
  8  9  1  0  0  0
  8  2  1  0  0  0
  3  2  2  0  0  0
  3  7  1  0  0  0
  2  4  1  0  0  0
  7  6  2  0  0  0
  4  5  2  0  0  0
  6  5  1  0  0  0
 24 25  1  0  0  0
 31 40  1  0  0  0
 21 23  1  0  0  0
M  END
> <minimizedAffinity>
-7.71943

$$$$
