2VUK_P83_B_1291


 19 21  0  0  0  0  0  0  0  0999 V2000
  125.1799  105.2563  -41.0857 C   0  0  0  0  0  0  0  0  0  0  0  0
  124.9377  106.6654  -41.1595 C   0  0  0  0  0  0  0  0  0  0  0  0
  124.5577  107.2885  -42.3963 C   0  0  0  0  0  0  0  0  0  0  0  0
  124.4172  106.4988  -43.5639 C   0  0  0  0  0  0  0  0  0  0  0  0
  124.6557  105.0752  -43.5208 C   0  0  0  0  0  0  0  0  0  0  0  0
  124.5994  104.0427  -44.5082 C   0  0  0  0  0  0  0  0  0  0  0  0
  124.2789  104.0377  -45.9106 C   0  0  0  0  0  0  0  0  0  0  0  0
  124.3174  102.8168  -46.6345 C   0  0  0  0  0  0  0  0  0  0  0  0
  124.6723  101.6034  -45.9875 C   0  0  0  0  0  0  0  0  0  0  0  0
  124.9946  101.5846  -44.6028 C   0  0  0  0  0  0  0  0  0  0  0  0
  124.9512  102.8183  -43.8782 C   0  0  0  0  0  0  0  0  0  0  0  0
  125.2104  103.1111  -42.5366 N   0  0  0  0  0  0  0  0  0  0  0  0
  125.0372  104.4724  -42.2840 C   0  0  0  0  0  0  0  0  0  0  0  0
  125.6204  102.1101  -41.5411 C   0  0  0  0  0  0  0  0  0  0  0  0
  127.1343  102.1416  -41.3211 C   0  0  0  0  0  0  0  0  0  0  0  0
  124.3348  108.7951  -42.3760 C   0  0  0  0  0  0  0  0  0  0  0  0
  125.5562  109.5165  -41.9968 N   0  0  0  0  0  0  0  0  0  0  0  0
  125.3542  110.3197  -40.7723 C   0  0  0  0  0  0  0  0  0  0  0  0
  125.8245  110.1378  -42.7600 H   0  0  0  0  0  0  0  0  0  0  0  0
  1  2  1  0  0  0
  1 13  2  0  0  0
  2  3  2  0  0  0
  3  4  1  0  0  0
  3 16  1  0  0  0
  4  5  2  0  0  0
  5  6  1  0  0  0
  5 13  1  0  0  0
  6  7  1  0  0  0
  6 11  2  0  0  0
  7  8  2  0  0  0
  8  9  1  0  0  0
  9 10  2  0  0  0
 10 11  1  0  0  0
 11 12  1  0  0  0
 12 13  1  0  0  0
 12 14  1  0  0  0
 14 15  1  0  0  0
 16 17  1  0  0  0
 17 18  1  0  0  0
 17 19  1  0  0  0
M  END
> <minimizedAffinity>
-7.42006

$$$$
2VUK_P83_B_1291


 19 21  0  0  0  0  0  0  0  0999 V2000
  125.0961  105.3755  -41.1740 C   0  0  0  0  0  0  0  0  0  0  0  0
  124.8246  106.7748  -41.3076 C   0  0  0  0  0  0  0  0  0  0  0  0
  124.4457  107.3389  -42.5727 C   0  0  0  0  0  0  0  0  0  0  0  0
  124.3356  106.4998  -43.7087 C   0  0  0  0  0  0  0  0  0  0  0  0
  124.6040  105.0847  -43.6052 C   0  0  0  0  0  0  0  0  0  0  0  0
  124.5812  104.0121  -44.5503 C   0  0  0  0  0  0  0  0  0  0  0  0
  124.2771  103.9434  -45.9547 C   0  0  0  0  0  0  0  0  0  0  0  0
  124.3500  102.6954  -46.6279 C   0  0  0  0  0  0  0  0  0  0  0  0
  124.7233  101.5172  -45.9284 C   0  0  0  0  0  0  0  0  0  0  0  0
  125.0300  101.5615  -44.5407 C   0  0  0  0  0  0  0  0  0  0  0  0
  124.9519  102.8222  -43.8674 C   0  0  0  0  0  0  0  0  0  0  0  0
  125.1892  103.1745  -42.5361 N   0  0  0  0  0  0  0  0  0  0  0  0
  124.9840  104.5408  -42.3410 C   0  0  0  0  0  0  0  0  0  0  0  0
  125.6091  102.2238  -41.4964 C   0  0  0  0  0  0  0  0  0  0  0  0
  127.1300  102.2280  -41.3294 C   0  0  0  0  0  0  0  0  0  0  0  0
  124.1904  108.8399  -42.6161 C   0  0  0  0  0  0  0  0  0  0  0  0
  123.0394  109.2161  -41.7855 N   0  0  0  0  0  0  0  0  0  0  0  0
  121.7602  108.9306  -42.4692 C   0  0  0  0  0  0  0  0  0  0  0  0
  123.0904  110.2141  -41.5813 H   0  0  0  0  0  0  0  0  0  0  0  0
  1  2  1  0  0  0
  1 13  2  0  0  0
  2  3  2  0  0  0
  3  4  1  0  0  0
  3 16  1  0  0  0
  4  5  2  0  0  0
  5  6  1  0  0  0
  5 13  1  0  0  0
  6  7  1  0  0  0
  6 11  2  0  0  0
  7  8  2  0  0  0
  8  9  1  0  0  0
  9 10  2  0  0  0
 10 11  1  0  0  0
 11 12  1  0  0  0
 12 13  1  0  0  0
 12 14  1  0  0  0
 14 15  1  0  0  0
 16 17  1  0  0  0
 17 18  1  0  0  0
 17 19  1  0  0  0
M  END
> <minimizedAffinity>
-7.41840

$$$$
2VUK_P83_B_1291


 19 21  0  0  0  0  0  0  0  0999 V2000
  125.0595  101.7234  -44.1567 C   0  0  0  0  0  0  0  0  0  0  0  0
  124.8548  101.2896  -45.5057 C   0  0  0  0  0  0  0  0  0  0  0  0
  124.4918  102.2209  -46.5368 C   0  0  0  0  0  0  0  0  0  0  0  0
  124.3348  103.5922  -46.2182 C   0  0  0  0  0  0  0  0  0  0  0  0
  124.5337  104.0596  -44.8665 C   0  0  0  0  0  0  0  0  0  0  0  0
  124.4460  105.3480  -44.2530 C   0  0  0  0  0  0  0  0  0  0  0  0
  124.1323  106.6588  -44.7560 C   0  0  0  0  0  0  0  0  0  0  0  0
  124.1251  107.7673  -43.8688 C   0  0  0  0  0  0  0  0  0  0  0  0
  124.4211  107.5925  -42.4909 C   0  0  0  0  0  0  0  0  0  0  0  0
  124.7323  106.3062  -41.9711 C   0  0  0  0  0  0  0  0  0  0  0  0
  124.7405  105.1934  -42.8714 C   0  0  0  0  0  0  0  0  0  0  0  0
  125.0034  103.8371  -42.6610 N   0  0  0  0  0  0  0  0  0  0  0  0
  124.8898  103.1197  -43.8523 C   0  0  0  0  0  0  0  0  0  0  0  0
  125.3412  103.2585  -41.3525 C   0  0  0  0  0  0  0  0  0  0  0  0
  126.7903  102.7683  -41.3255 C   0  0  0  0  0  0  0  0  0  0  0  0
  124.2837  101.6605  -47.9378 C   0  0  0  0  0  0  0  0  0  0  0  0
  124.6990  100.2548  -48.0243 N   0  0  0  0  0  0  0  0  0  0  0  0
  123.7418   99.4536  -48.8162 C   0  0  0  0  0  0  0  0  0  0  0  0
  124.7554   99.8675  -47.0823 H   0  0  0  0  0  0  0  0  0  0  0  0
  1  2  1  0  0  0
  1 13  2  0  0  0
  2  3  2  0  0  0
  3  4  1  0  0  0
  3 16  1  0  0  0
  4  5  2  0  0  0
  5  6  1  0  0  0
  5 13  1  0  0  0
  6  7  1  0  0  0
  6 11  2  0  0  0
  7  8  2  0  0  0
  8  9  1  0  0  0
  9 10  2  0  0  0
 10 11  1  0  0  0
 11 12  1  0  0  0
 12 13  1  0  0  0
 12 14  1  0  0  0
 14 15  1  0  0  0
 16 17  1  0  0  0
 17 18  1  0  0  0
 17 19  1  0  0  0
M  END
> <minimizedAffinity>
-7.05403

$$$$
2VUK_P83_B_1291


 19 21  0  0  0  0  0  0  0  0999 V2000
  123.9481  104.4057  -46.5337 C   0  0  0  0  0  0  0  0  0  0  0  0
  124.1133  103.0263  -46.8798 C   0  0  0  0  0  0  0  0  0  0  0  0
  124.5430  102.0637  -45.9047 C   0  0  0  0  0  0  0  0  0  0  0  0
  124.8067  102.4817  -44.5771 C   0  0  0  0  0  0  0  0  0  0  0  0
  124.6500  103.8663  -44.1983 C   0  0  0  0  0  0  0  0  0  0  0  0
  124.8394  104.5729  -42.9698 C   0  0  0  0  0  0  0  0  0  0  0  0
  125.2514  104.1656  -41.6531 C   0  0  0  0  0  0  0  0  0  0  0  0
  125.3477  105.1326  -40.6178 C   0  0  0  0  0  0  0  0  0  0  0  0
  125.0446  106.4966  -40.8720 C   0  0  0  0  0  0  0  0  0  0  0  0
  124.6371  106.9224  -42.1659 C   0  0  0  0  0  0  0  0  0  0  0  0
  124.5393  105.9420  -43.2044 C   0  0  0  0  0  0  0  0  0  0  0  0
  124.1733  106.0537  -44.5484 N   0  0  0  0  0  0  0  0  0  0  0  0
  124.2263  104.8113  -45.1813 C   0  0  0  0  0  0  0  0  0  0  0  0
  123.7971  107.3188  -45.1956 C   0  0  0  0  0  0  0  0  0  0  0  0
  122.2950  107.5785  -45.0640 C   0  0  0  0  0  0  0  0  0  0  0  0
  124.7016  100.6230  -46.3729 C   0  0  0  0  0  0  0  0  0  0  0  0
  125.0442  100.5535  -47.7991 N   0  0  0  0  0  0  0  0  0  0  0  0
  124.0242   99.8080  -48.5667 C   0  0  0  0  0  0  0  0  0  0  0  0
  125.9440  100.0841  -47.9011 H   0  0  0  0  0  0  0  0  0  0  0  0
  1  2  1  0  0  0
  1 13  2  0  0  0
  2  3  2  0  0  0
  3  4  1  0  0  0
  3 16  1  0  0  0
  4  5  2  0  0  0
  5  6  1  0  0  0
  5 13  1  0  0  0
  6  7  1  0  0  0
  6 11  2  0  0  0
  7  8  2  0  0  0
  8  9  1  0  0  0
  9 10  2  0  0  0
 10 11  1  0  0  0
 11 12  1  0  0  0
 12 13  1  0  0  0
 12 14  1  0  0  0
 14 15  1  0  0  0
 16 17  1  0  0  0
 17 18  1  0  0  0
 17 19  1  0  0  0
M  END
> <minimizedAffinity>
-5.98196

$$$$
2VUK_P83_B_1291


 19 21  0  0  0  0  0  0  0  0999 V2000
  124.0244  103.7459  -47.0208 C   0  0  0  0  0  0  0  0  0  0  0  0
  124.1254  102.5182  -47.7503 C   0  0  0  0  0  0  0  0  0  0  0  0
  124.5365  101.3035  -47.1040 C   0  0  0  0  0  0  0  0  0  0  0  0
  124.8459  101.3160  -45.7216 C   0  0  0  0  0  0  0  0  0  0  0  0
  124.7542  102.5391  -44.9596 C   0  0  0  0  0  0  0  0  0  0  0  0
  124.9990  102.8587  -43.5877 C   0  0  0  0  0  0  0  0  0  0  0  0
  125.4226  102.0790  -42.4554 C   0  0  0  0  0  0  0  0  0  0  0  0
  125.5809  102.7063  -41.1915 C   0  0  0  0  0  0  0  0  0  0  0  0
  125.3283  104.0952  -41.0369 C   0  0  0  0  0  0  0  0  0  0  0  0
  124.9105  104.8860  -42.1422 C   0  0  0  0  0  0  0  0  0  0  0  0
  124.7502  104.2470  -43.4130 C   0  0  0  0  0  0  0  0  0  0  0  0
  124.3599  104.7498  -44.6570 N   0  0  0  0  0  0  0  0  0  0  0  0
  124.3483  103.7389  -45.6187 C   0  0  0  0  0  0  0  0  0  0  0  0
  124.0217  106.1588  -44.9048 C   0  0  0  0  0  0  0  0  0  0  0  0
  125.2760  107.0350  -44.8965 C   0  0  0  0  0  0  0  0  0  0  0  0
  124.6259  100.0521  -47.9678 C   0  0  0  0  0  0  0  0  0  0  0  0
  124.1062  100.2914  -49.3201 N   0  0  0  0  0  0  0  0  0  0  0  0
  122.8201   99.5959  -49.5383 C   0  0  0  0  0  0  0  0  0  0  0  0
  124.7858   99.9524  -50.0010 H   0  0  0  0  0  0  0  0  0  0  0  0
  1  2  1  0  0  0
  1 13  2  0  0  0
  2  3  2  0  0  0
  3  4  1  0  0  0
  3 16  1  0  0  0
  4  5  2  0  0  0
  5  6  1  0  0  0
  5 13  1  0  0  0
  6  7  1  0  0  0
  6 11  2  0  0  0
  7  8  2  0  0  0
  8  9  1  0  0  0
  9 10  2  0  0  0
 10 11  1  0  0  0
 11 12  1  0  0  0
 12 13  1  0  0  0
 12 14  1  0  0  0
 14 15  1  0  0  0
 16 17  1  0  0  0
 17 18  1  0  0  0
 17 19  1  0  0  0
M  END
> <minimizedAffinity>
-5.86808

$$$$
2VUK_P83_B_1291


 19 21  0  0  0  0  0  0  0  0999 V2000
  124.2085  107.9525  -44.3938 C   0  0  0  0  0  0  0  0  0  0  0  0
  124.3829  109.0387  -43.4776 C   0  0  0  0  0  0  0  0  0  0  0  0
  124.7850  108.8053  -42.1189 C   0  0  0  0  0  0  0  0  0  0  0  0
  125.0159  107.4801  -41.6749 C   0  0  0  0  0  0  0  0  0  0  0  0
  124.8473  106.3639  -42.5755 C   0  0  0  0  0  0  0  0  0  0  0  0
  124.9983  104.9505  -42.4220 C   0  0  0  0  0  0  0  0  0  0  0  0
  125.3797  104.1154  -41.3145 C   0  0  0  0  0  0  0  0  0  0  0  0
  125.4342  102.7068  -41.4843 C   0  0  0  0  0  0  0  0  0  0  0  0
  125.1124  102.1163  -42.7351 C   0  0  0  0  0  0  0  0  0  0  0  0
  124.7311  102.9216  -43.8432 C   0  0  0  0  0  0  0  0  0  0  0  0
  124.6809  104.3412  -43.6661 C   0  0  0  0  0  0  0  0  0  0  0  0
  124.3490  105.3710  -44.5503 N   0  0  0  0  0  0  0  0  0  0  0  0
  124.4426  106.6133  -43.9218 C   0  0  0  0  0  0  0  0  0  0  0  0
  123.9463  105.1568  -45.9479 C   0  0  0  0  0  0  0  0  0  0  0  0
  122.5454  105.7144  -46.2081 C   0  0  0  0  0  0  0  0  0  0  0  0
  124.9312  110.0246  -41.2178 C   0  0  0  0  0  0  0  0  0  0  0  0
  123.6241  110.5802  -40.8451 N   0  0  0  0  0  0  0  0  0  0  0  0
  123.7671  111.7794  -39.9926 C   0  0  0  0  0  0  0  0  0  0  0  0
  123.0964  109.8720  -40.3347 H   0  0  0  0  0  0  0  0  0  0  0  0
  1  2  1  0  0  0
  1 13  2  0  0  0
  2  3  2  0  0  0
  3  4  1  0  0  0
  3 16  1  0  0  0
  4  5  2  0  0  0
  5  6  1  0  0  0
  5 13  1  0  0  0
  6  7  1  0  0  0
  6 11  2  0  0  0
  7  8  2  0  0  0
  8  9  1  0  0  0
  9 10  2  0  0  0
 10 11  1  0  0  0
 11 12  1  0  0  0
 12 13  1  0  0  0
 12 14  1  0  0  0
 14 15  1  0  0  0
 16 17  1  0  0  0
 17 18  1  0  0  0
 17 19  1  0  0  0
M  END
> <minimizedAffinity>
-5.52605

$$$$
2VUK_P83_B_1291


 19 21  0  0  0  0  0  0  0  0999 V2000
  123.5276  105.3958  -45.9303 C   0  0  0  0  0  0  0  0  0  0  0  0
  124.0214  104.1280  -45.4849 C   0  0  0  0  0  0  0  0  0  0  0  0
  124.6885  103.9950  -44.2202 C   0  0  0  0  0  0  0  0  0  0  0  0
  124.8607  105.1343  -43.3962 C   0  0  0  0  0  0  0  0  0  0  0  0
  124.3742  106.4266  -43.8188 C   0  0  0  0  0  0  0  0  0  0  0  0
  124.4021  107.7261  -43.2231 C   0  0  0  0  0  0  0  0  0  0  0  0
  124.9206  108.2278  -41.9786 C   0  0  0  0  0  0  0  0  0  0  0  0
  124.7915  109.6079  -41.6705 C   0  0  0  0  0  0  0  0  0  0  0  0
  124.1590  110.4958  -42.5806 C   0  0  0  0  0  0  0  0  0  0  0  0
  123.6407  110.0227  -43.8172 C   0  0  0  0  0  0  0  0  0  0  0  0
  123.7716  108.6299  -44.1204 C   0  0  0  0  0  0  0  0  0  0  0  0
  123.3699  107.8851  -45.2325 N   0  0  0  0  0  0  0  0  0  0  0  0
  123.7172  106.5422  -45.0812 C   0  0  0  0  0  0  0  0  0  0  0  0
  122.6852  108.4567  -46.4010 C   0  0  0  0  0  0  0  0  0  0  0  0
  121.1657  108.3599  -46.2497 C   0  0  0  0  0  0  0  0  0  0  0  0
  125.1892  102.6074  -43.8408 C   0  0  0  0  0  0  0  0  0  0  0  0
  124.6703  102.1848  -42.5338 N   0  0  0  0  0  0  0  0  0  0  0  0
  125.7258  102.2029  -41.4990 C   0  0  0  0  0  0  0  0  0  0  0  0
  124.3016  101.2372  -42.6144 H   0  0  0  0  0  0  0  0  0  0  0  0
  1  2  1  0  0  0
  1 13  2  0  0  0
  2  3  2  0  0  0
  3  4  1  0  0  0
  3 16  1  0  0  0
  4  5  2  0  0  0
  5  6  1  0  0  0
  5 13  1  0  0  0
  6  7  1  0  0  0
  6 11  2  0  0  0
  7  8  2  0  0  0
  8  9  1  0  0  0
  9 10  2  0  0  0
 10 11  1  0  0  0
 11 12  1  0  0  0
 12 13  1  0  0  0
 12 14  1  0  0  0
 14 15  1  0  0  0
 16 17  1  0  0  0
 17 18  1  0  0  0
 17 19  1  0  0  0
M  END
> <minimizedAffinity>
-5.50629

$$$$
2VUK_P83_B_1291


 19 21  0  0  0  0  0  0  0  0999 V2000
  124.6042  106.7074  -44.1337 C   0  0  0  0  0  0  0  0  0  0  0  0
  124.6528  105.4794  -43.3992 C   0  0  0  0  0  0  0  0  0  0  0  0
  124.8848  105.4720  -41.9820 C   0  0  0  0  0  0  0  0  0  0  0  0
  125.0669  106.6979  -41.2959 C   0  0  0  0  0  0  0  0  0  0  0  0
  125.0242  107.9524  -42.0098 C   0  0  0  0  0  0  0  0  0  0  0  0
  125.1727  109.3154  -41.6041 C   0  0  0  0  0  0  0  0  0  0  0  0
  125.4147  109.9436  -40.3329 C   0  0  0  0  0  0  0  0  0  0  0  0
  125.5168  111.3578  -40.2575 C   0  0  0  0  0  0  0  0  0  0  0  0
  125.3859  112.1554  -41.4251 C   0  0  0  0  0  0  0  0  0  0  0  0
  125.1483  111.5564  -42.6925 C   0  0  0  0  0  0  0  0  0  0  0  0
  125.0436  110.1304  -42.7611 C   0  0  0  0  0  0  0  0  0  0  0  0
  124.8182  109.2718  -43.8403 N   0  0  0  0  0  0  0  0  0  0  0  0
  124.7970  107.9417  -43.4193 C   0  0  0  0  0  0  0  0  0  0  0  0
  124.6409  109.7242  -45.2278 C   0  0  0  0  0  0  0  0  0  0  0  0
  125.9665  109.6898  -45.9911 C   0  0  0  0  0  0  0  0  0  0  0  0
  124.9317  104.1148  -41.2923 C   0  0  0  0  0  0  0  0  0  0  0  0
  126.3098  103.7151  -40.9802 N   0  0  0  0  0  0  0  0  0  0  0  0
  126.6650  102.4366  -41.6316 C   0  0  0  0  0  0  0  0  0  0  0  0
  126.4033  103.6094  -39.9700 H   0  0  0  0  0  0  0  0  0  0  0  0
  1  2  1  0  0  0
  1 13  2  0  0  0
  2  3  2  0  0  0
  3  4  1  0  0  0
  3 16  1  0  0  0
  4  5  2  0  0  0
  5  6  1  0  0  0
  5 13  1  0  0  0
  6  7  1  0  0  0
  6 11  2  0  0  0
  7  8  2  0  0  0
  8  9  1  0  0  0
  9 10  2  0  0  0
 10 11  1  0  0  0
 11 12  1  0  0  0
 12 13  1  0  0  0
 12 14  1  0  0  0
 14 15  1  0  0  0
 16 17  1  0  0  0
 17 18  1  0  0  0
 17 19  1  0  0  0
M  END
> <minimizedAffinity>
-5.45431

$$$$
2VUK_P83_B_1291


 19 21  0  0  0  0  0  0  0  0999 V2000
  125.1849  103.4940  -42.1355 C   0  0  0  0  0  0  0  0  0  0  0  0
  125.1796  102.4096  -43.0702 C   0  0  0  0  0  0  0  0  0  0  0  0
  124.8375  102.6208  -44.4488 C   0  0  0  0  0  0  0  0  0  0  0  0
  124.5012  103.9225  -44.8952 C   0  0  0  0  0  0  0  0  0  0  0  0
  124.4968  105.0360  -43.9757 C   0  0  0  0  0  0  0  0  0  0  0  0
  124.2048  106.4276  -44.1246 C   0  0  0  0  0  0  0  0  0  0  0  0
  123.8119  107.2367  -45.2473 C   0  0  0  0  0  0  0  0  0  0  0  0
  123.5880  108.6271  -45.0657 C   0  0  0  0  0  0  0  0  0  0  0  0
  123.7449  109.2237  -43.7866 C   0  0  0  0  0  0  0  0  0  0  0  0
  124.1307  108.4434  -42.6623 C   0  0  0  0  0  0  0  0  0  0  0  0
  124.3576  107.0430  -42.8528 C   0  0  0  0  0  0  0  0  0  0  0  0
  124.7378  106.0390  -41.9583 N   0  0  0  0  0  0  0  0  0  0  0  0
  124.8351  104.8077  -42.6075 C   0  0  0  0  0  0  0  0  0  0  0  0
  124.9866  106.2641  -40.5270 C   0  0  0  0  0  0  0  0  0  0  0  0
  125.8387  107.5158  -40.3072 C   0  0  0  0  0  0  0  0  0  0  0  0
  124.8480  101.4021  -45.3624 C   0  0  0  0  0  0  0  0  0  0  0  0
  124.4875  101.7575  -46.7408 N   0  0  0  0  0  0  0  0  0  0  0  0
  124.6816  100.6189  -47.6634 C   0  0  0  0  0  0  0  0  0  0  0  0
  125.0729  102.5349  -47.0463 H   0  0  0  0  0  0  0  0  0  0  0  0
  1  2  1  0  0  0
  1 13  2  0  0  0
  2  3  2  0  0  0
  3  4  1  0  0  0
  3 16  1  0  0  0
  4  5  2  0  0  0
  5  6  1  0  0  0
  5 13  1  0  0  0
  6  7  1  0  0  0
  6 11  2  0  0  0
  7  8  2  0  0  0
  8  9  1  0  0  0
  9 10  2  0  0  0
 10 11  1  0  0  0
 11 12  1  0  0  0
 12 13  1  0  0  0
 12 14  1  0  0  0
 14 15  1  0  0  0
 16 17  1  0  0  0
 17 18  1  0  0  0
 17 19  1  0  0  0
M  END
> <minimizedAffinity>
-5.41822

$$$$
2VUK_P83_B_1291


 19 21  0  0  0  0  0  0  0  0999 V2000
  125.3549  107.2097  -40.6901 C   0  0  0  0  0  0  0  0  0  0  0  0
  125.3443  105.7781  -40.6912 C   0  0  0  0  0  0  0  0  0  0  0  0
  124.9311  105.0406  -41.8521 C   0  0  0  0  0  0  0  0  0  0  0  0
  124.5287  105.7377  -43.0178 C   0  0  0  0  0  0  0  0  0  0  0  0
  124.5279  107.1815  -43.0466 C   0  0  0  0  0  0  0  0  0  0  0  0
  124.1803  108.1407  -44.0483 C   0  0  0  0  0  0  0  0  0  0  0  0
  123.7073  108.0235  -45.4018 C   0  0  0  0  0  0  0  0  0  0  0  0
  123.4432  109.1969  -46.1565 C   0  0  0  0  0  0  0  0  0  0  0  0
  123.6384  110.4827  -45.5860 C   0  0  0  0  0  0  0  0  0  0  0  0
  124.1034  110.6227  -44.2497 C   0  0  0  0  0  0  0  0  0  0  0  0
  124.3704  109.4359  -43.4953 C   0  0  0  0  0  0  0  0  0  0  0  0
  124.8270  109.2565  -42.1869 N   0  0  0  0  0  0  0  0  0  0  0  0
  124.9373  107.8993  -41.8822 C   0  0  0  0  0  0  0  0  0  0  0  0
  125.1341  110.3594  -41.2647 C   0  0  0  0  0  0  0  0  0  0  0  0
  123.8558  110.9391  -40.6558 C   0  0  0  0  0  0  0  0  0  0  0  0
  124.9420  103.5209  -41.7507 C   0  0  0  0  0  0  0  0  0  0  0  0
  124.2754  102.8982  -42.9013 N   0  0  0  0  0  0  0  0  0  0  0  0
  125.2364  102.1705  -43.7570 C   0  0  0  0  0  0  0  0  0  0  0  0
  123.8230  103.6253  -43.4554 H   0  0  0  0  0  0  0  0  0  0  0  0
  1  2  1  0  0  0
  1 13  2  0  0  0
  2  3  2  0  0  0
  3  4  1  0  0  0
  3 16  1  0  0  0
  4  5  2  0  0  0
  5  6  1  0  0  0
  5 13  1  0  0  0
  6  7  1  0  0  0
  6 11  2  0  0  0
  7  8  2  0  0  0
  8  9  1  0  0  0
  9 10  2  0  0  0
 10 11  1  0  0  0
 11 12  1  0  0  0
 12 13  1  0  0  0
 12 14  1  0  0  0
 14 15  1  0  0  0
 16 17  1  0  0  0
 17 18  1  0  0  0
 17 19  1  0  0  0
M  END
> <minimizedAffinity>
-5.33851

$$$$
