5K03_6P4_A_301


 17 19  0  0  0  0  0  0  0  0999 V2000
   21.7468   16.4365   20.7129 C   0  0  0  0  0  0  0  0  0  0  0  0
   19.7267   15.6815   18.9539 N   0  0  0  0  0  0  0  0  0  0  0  0
   18.6036   15.6057   18.1046 C   0  0  0  0  0  0  0  0  0  0  0  0
   19.7408   16.9828   19.4860 C   0  0  0  0  0  0  0  0  0  0  0  0
   20.7025   14.7492   19.2865 C   0  0  0  0  0  0  0  0  0  0  0  0
   17.9862   16.8624   18.1680 C   0  0  0  0  0  0  0  0  0  0  0  0
   18.6846   17.7068   19.0165 N   0  0  0  0  0  0  0  0  0  0  0  0
   20.7979   17.3512   20.3820 C   0  0  0  0  0  0  0  0  0  0  0  0
   21.7089   15.1168   20.1583 C   0  0  0  0  0  0  0  0  0  0  0  0
   16.7614   17.2906   17.4477 C   0  0  0  0  0  0  0  0  0  0  0  0
   22.7901   14.1443   20.5467 C   0  0  0  0  0  0  0  0  0  0  0  0
   18.3666   13.0720   17.8344 C   0  0  0  0  0  0  0  0  0  0  0  0
   17.8215   12.2730   16.8440 C   0  0  0  0  0  0  0  0  0  0  0  0
   18.2068   14.4265   17.3900 C   0  0  0  0  0  0  0  0  0  0  0  0
   17.5659   14.4595   16.1884 N   0  0  0  0  0  0  0  0  0  0  0  0
   17.3476   13.1338   15.8820 N   0  0  0  0  0  0  0  0  0  0  0  0
   17.3155   15.2508   15.6590 H   0  0  0  0  0  0  0  0  0  0  0  0
 16 15  1  0  0  0
 16 13  2  0  0  0
 15 14  1  0  0  0
 13 12  1  0  0  0
 14 12  2  0  0  0
 14  3  1  0  0  0
 10  6  1  0  0  0
  3  6  2  0  0  0
  3  2  1  0  0  0
  6  7  1  0  0  0
  2  5  1  0  0  0
  2  4  1  0  0  0
  7  4  2  0  0  0
  5  9  2  0  0  0
  4  8  1  0  0  0
  9 11  1  0  0  0
  9  1  1  0  0  0
  8  1  2  0  0  0
 15 17  1  0  0  0
M  END
> <minimizedAffinity>
-8.10431

$$$$
5K03_6P4_A_301


 17 19  0  0  0  0  0  0  0  0999 V2000
   18.4098   11.6390   16.8857 C   0  0  0  0  0  0  0  0  0  0  0  0
   18.6587   14.2430   17.8355 N   0  0  0  0  0  0  0  0  0  0  0  0
   18.5739   15.6295   18.0784 C   0  0  0  0  0  0  0  0  0  0  0  0
   17.8335   13.9780   16.7284 C   0  0  0  0  0  0  0  0  0  0  0  0
   19.3641   13.2308   18.4756 C   0  0  0  0  0  0  0  0  0  0  0  0
   17.7071   16.1400   17.1025 C   0  0  0  0  0  0  0  0  0  0  0  0
   17.2536   15.1258   16.2740 N   0  0  0  0  0  0  0  0  0  0  0  0
   17.7134   12.6267   16.2642 C   0  0  0  0  0  0  0  0  0  0  0  0
   19.2450   11.9355   18.0105 C   0  0  0  0  0  0  0  0  0  0  0  0
   17.2906   17.5543   16.9329 C   0  0  0  0  0  0  0  0  0  0  0  0
   19.9859   10.8044   18.6716 C   0  0  0  0  0  0  0  0  0  0  0  0
   20.5610   15.9211   19.6645 C   0  0  0  0  0  0  0  0  0  0  0  0
   20.8915   16.8872   20.5993 C   0  0  0  0  0  0  0  0  0  0  0  0
   19.2998   16.3172   19.1073 C   0  0  0  0  0  0  0  0  0  0  0  0
   18.8856   17.4922   19.6581 N   0  0  0  0  0  0  0  0  0  0  0  0
   19.8741   17.8115   20.5636 N   0  0  0  0  0  0  0  0  0  0  0  0
   18.0660   17.9985   19.4552 H   0  0  0  0  0  0  0  0  0  0  0  0
 16 15  1  0  0  0
 16 13  2  0  0  0
 15 14  1  0  0  0
 13 12  1  0  0  0
 14 12  2  0  0  0
 14  3  1  0  0  0
 10  6  1  0  0  0
  3  6  2  0  0  0
  3  2  1  0  0  0
  6  7  1  0  0  0
  2  5  1  0  0  0
  2  4  1  0  0  0
  7  4  2  0  0  0
  5  9  2  0  0  0
  4  8  1  0  0  0
  9 11  1  0  0  0
  9  1  1  0  0  0
  8  1  2  0  0  0
 15 17  1  0  0  0
M  END
> <minimizedAffinity>
-7.89944

$$$$
5K03_6P4_A_301


 17 19  0  0  0  0  0  0  0  0999 V2000
   19.5629   17.1930   19.1067 C   0  0  0  0  0  0  0  0  0  0  0  0
   19.1072   14.5393   18.4032 N   0  0  0  0  0  0  0  0  0  0  0  0
   18.6827   13.3270   17.8211 C   0  0  0  0  0  0  0  0  0  0  0  0
   18.4478   15.5699   17.7104 C   0  0  0  0  0  0  0  0  0  0  0  0
   19.9887   14.8102   19.4431 C   0  0  0  0  0  0  0  0  0  0  0  0
   17.7808   13.6802   16.8081 C   0  0  0  0  0  0  0  0  0  0  0  0
   17.6368   15.0569   16.7413 N   0  0  0  0  0  0  0  0  0  0  0  0
   18.7072   16.9296   18.0845 C   0  0  0  0  0  0  0  0  0  0  0  0
   20.2207   16.1250   19.7976 C   0  0  0  0  0  0  0  0  0  0  0  0
   17.0563   12.7576   15.8990 C   0  0  0  0  0  0  0  0  0  0  0  0
   21.1689   16.4698   20.9145 C   0  0  0  0  0  0  0  0  0  0  0  0
   20.4214   11.4832   18.1766 C   0  0  0  0  0  0  0  0  0  0  0  0
   20.3610   10.2231   18.7468 C   0  0  0  0  0  0  0  0  0  0  0  0
   19.0969   12.0271   18.2650 C   0  0  0  0  0  0  0  0  0  0  0  0
   18.2633   11.1480   18.8880 N   0  0  0  0  0  0  0  0  0  0  0  0
   19.0617   10.0597   19.1661 N   0  0  0  0  0  0  0  0  0  0  0  0
   17.3074   11.2638   19.0930 H   0  0  0  0  0  0  0  0  0  0  0  0
 16 15  1  0  0  0
 16 13  2  0  0  0
 15 14  1  0  0  0
 13 12  1  0  0  0
 14 12  2  0  0  0
 14  3  1  0  0  0
 10  6  1  0  0  0
  3  6  2  0  0  0
  3  2  1  0  0  0
  6  7  1  0  0  0
  2  5  1  0  0  0
  2  4  1  0  0  0
  7  4  2  0  0  0
  5  9  2  0  0  0
  4  8  1  0  0  0
  9 11  1  0  0  0
  9  1  1  0  0  0
  8  1  2  0  0  0
 15 17  1  0  0  0
M  END
> <minimizedAffinity>
-7.48641

$$$$
5K03_6P4_A_301


 17 19  0  0  0  0  0  0  0  0999 V2000
   17.9294   11.8117   16.4102 C   0  0  0  0  0  0  0  0  0  0  0  0
   18.8652   13.9414   17.9378 N   0  0  0  0  0  0  0  0  0  0  0  0
   19.1400   15.1946   18.5229 C   0  0  0  0  0  0  0  0  0  0  0  0
   17.9450   14.1754   16.9009 C   0  0  0  0  0  0  0  0  0  0  0  0
   19.3286   12.6626   18.2242 C   0  0  0  0  0  0  0  0  0  0  0  0
   18.3788   16.1295   17.8081 C   0  0  0  0  0  0  0  0  0  0  0  0
   17.6462   15.5031   16.8124 N   0  0  0  0  0  0  0  0  0  0  0  0
   17.4696   13.0605   16.1348 C   0  0  0  0  0  0  0  0  0  0  0  0
   18.8680   11.6003   17.4708 C   0  0  0  0  0  0  0  0  0  0  0  0
   18.3186   17.5940   18.0408 C   0  0  0  0  0  0  0  0  0  0  0  0
   19.3373   10.1965   17.7441 C   0  0  0  0  0  0  0  0  0  0  0  0
   21.4528   15.0362   19.6069 C   0  0  0  0  0  0  0  0  0  0  0  0
   21.9540   15.4450   20.8309 C   0  0  0  0  0  0  0  0  0  0  0  0
   20.0652   15.4000   19.6002 C   0  0  0  0  0  0  0  0  0  0  0  0
   19.7340   16.0302   20.7615 N   0  0  0  0  0  0  0  0  0  0  0  0
   20.9038   16.0395   21.4900 N   0  0  0  0  0  0  0  0  0  0  0  0
   18.8578   16.3961   21.0215 H   0  0  0  0  0  0  0  0  0  0  0  0
 16 15  1  0  0  0
 16 13  2  0  0  0
 15 14  1  0  0  0
 13 12  1  0  0  0
 14 12  2  0  0  0
 14  3  1  0  0  0
 10  6  1  0  0  0
  3  6  2  0  0  0
  3  2  1  0  0  0
  6  7  1  0  0  0
  2  5  1  0  0  0
  2  4  1  0  0  0
  7  4  2  0  0  0
  5  9  2  0  0  0
  4  8  1  0  0  0
  9 11  1  0  0  0
  9  1  1  0  0  0
  8  1  2  0  0  0
 15 17  1  0  0  0
M  END
> <minimizedAffinity>
-7.07521

$$$$
5K03_6P4_A_301


 17 19  0  0  0  0  0  0  0  0999 V2000
   18.9377   17.3841   18.7566 C   0  0  0  0  0  0  0  0  0  0  0  0
   19.6506   14.6970   18.6295 N   0  0  0  0  0  0  0  0  0  0  0  0
   20.2619   13.4319   18.7493 C   0  0  0  0  0  0  0  0  0  0  0  0
   20.4658   15.6048   19.3281 C   0  0  0  0  0  0  0  0  0  0  0  0
   18.4864   15.1077   17.9908 C   0  0  0  0  0  0  0  0  0  0  0  0
   21.4223   13.6344   19.5087 C   0  0  0  0  0  0  0  0  0  0  0  0
   21.5470   14.9684   19.8630 N   0  0  0  0  0  0  0  0  0  0  0  0
   20.0718   16.9822   19.3882 C   0  0  0  0  0  0  0  0  0  0  0  0
   18.1254   16.4398   18.0502 C   0  0  0  0  0  0  0  0  0  0  0  0
   22.4126   12.6059   19.9139 C   0  0  0  0  0  0  0  0  0  0  0  0
   16.8725   16.9330   17.3777 C   0  0  0  0  0  0  0  0  0  0  0  0
   20.1876   11.6723   16.8926 C   0  0  0  0  0  0  0  0  0  0  0  0
   19.4597   10.5072   16.7219 C   0  0  0  0  0  0  0  0  0  0  0  0
   19.7627   12.2308   18.1438 C   0  0  0  0  0  0  0  0  0  0  0  0
   18.8315   11.4279   18.7303 N   0  0  0  0  0  0  0  0  0  0  0  0
   18.6670   10.3895   17.8394 N   0  0  0  0  0  0  0  0  0  0  0  0
   18.3788   11.5596   19.5945 H   0  0  0  0  0  0  0  0  0  0  0  0
 16 15  1  0  0  0
 16 13  2  0  0  0
 15 14  1  0  0  0
 13 12  1  0  0  0
 14 12  2  0  0  0
 14  3  1  0  0  0
 10  6  1  0  0  0
  3  6  2  0  0  0
  3  2  1  0  0  0
  6  7  1  0  0  0
  2  5  1  0  0  0
  2  4  1  0  0  0
  7  4  2  0  0  0
  5  9  2  0  0  0
  4  8  1  0  0  0
  9 11  1  0  0  0
  9  1  1  0  0  0
  8  1  2  0  0  0
 15 17  1  0  0  0
M  END
> <minimizedAffinity>
-7.02502

$$$$
5K03_6P4_A_301


 17 19  0  0  0  0  0  0  0  0999 V2000
   22.3164   12.5241   19.7383 C   0  0  0  0  0  0  0  0  0  0  0  0
   20.1136   13.8737   18.7034 N   0  0  0  0  0  0  0  0  0  0  0  0
   18.9036   14.2591   18.0903 C   0  0  0  0  0  0  0  0  0  0  0  0
   20.2141   12.4795   18.5524 C   0  0  0  0  0  0  0  0  0  0  0  0
   21.0950   14.6068   19.3602 C   0  0  0  0  0  0  0  0  0  0  0  0
   18.3319   13.0810   17.5904 C   0  0  0  0  0  0  0  0  0  0  0  0
   19.1372   11.9894   17.8740 N   0  0  0  0  0  0  0  0  0  0  0  0
   21.3535   11.8055   19.1035 C   0  0  0  0  0  0  0  0  0  0  0  0
   22.1910   13.9439   19.8773 C   0  0  0  0  0  0  0  0  0  0  0  0
   17.0468   12.9552   16.8589 C   0  0  0  0  0  0  0  0  0  0  0  0
   23.2787   14.6926   20.5997 C   0  0  0  0  0  0  0  0  0  0  0  0
   17.5984   16.1495   16.9625 C   0  0  0  0  0  0  0  0  0  0  0  0
   17.3896   17.4792   17.2861 C   0  0  0  0  0  0  0  0  0  0  0  0
   18.4407   15.6136   17.9926 C   0  0  0  0  0  0  0  0  0  0  0  0
   18.7161   16.5679   18.9249 N   0  0  0  0  0  0  0  0  0  0  0  0
   18.0646   17.6918   18.4652 N   0  0  0  0  0  0  0  0  0  0  0  0
   19.2577   16.4756   19.7418 H   0  0  0  0  0  0  0  0  0  0  0  0
 16 15  1  0  0  0
 16 13  2  0  0  0
 15 14  1  0  0  0
 13 12  1  0  0  0
 14 12  2  0  0  0
 14  3  1  0  0  0
 10  6  1  0  0  0
  3  6  2  0  0  0
  3  2  1  0  0  0
  6  7  1  0  0  0
  2  5  1  0  0  0
  2  4  1  0  0  0
  7  4  2  0  0  0
  5  9  2  0  0  0
  4  8  1  0  0  0
  9 11  1  0  0  0
  9  1  1  0  0  0
  8  1  2  0  0  0
 15 17  1  0  0  0
M  END
> <minimizedAffinity>
-6.90857

$$$$
5K03_6P4_A_301


 17 19  0  0  0  0  0  0  0  0999 V2000
   17.2085   15.4666   16.8422 C   0  0  0  0  0  0  0  0  0  0  0  0
   19.4384   14.9369   18.4207 N   0  0  0  0  0  0  0  0  0  0  0  0
   20.5233   14.3639   19.1158 C   0  0  0  0  0  0  0  0  0  0  0  0
   18.8054   13.8887   17.7298 C   0  0  0  0  0  0  0  0  0  0  0  0
   18.9761   16.2452   18.3394 C   0  0  0  0  0  0  0  0  0  0  0  0
   20.4919   12.9945   18.8189 C   0  0  0  0  0  0  0  0  0  0  0  0
   19.4368   12.7037   17.9687 N   0  0  0  0  0  0  0  0  0  0  0  0
   17.6645   14.1886   16.9147 C   0  0  0  0  0  0  0  0  0  0  0  0
   17.8703   16.5162   17.5572 C   0  0  0  0  0  0  0  0  0  0  0  0
   21.4307   11.9549   19.3091 C   0  0  0  0  0  0  0  0  0  0  0  0
   17.3336   17.9170   17.4342 C   0  0  0  0  0  0  0  0  0  0  0  0
   21.0244   15.9338   21.0737 C   0  0  0  0  0  0  0  0  0  0  0  0
   22.2005   16.4063   21.6305 C   0  0  0  0  0  0  0  0  0  0  0  0
   21.4094   15.0932   19.9768 C   0  0  0  0  0  0  0  0  0  0  0  0
   22.7668   15.0307   19.8804 N   0  0  0  0  0  0  0  0  0  0  0  0
   23.2187   15.8421   20.8985 N   0  0  0  0  0  0  0  0  0  0  0  0
   23.3033   14.5214   19.2307 H   0  0  0  0  0  0  0  0  0  0  0  0
 16 15  1  0  0  0
 16 13  2  0  0  0
 15 14  1  0  0  0
 13 12  1  0  0  0
 14 12  2  0  0  0
 14  3  1  0  0  0
 10  6  1  0  0  0
  3  6  2  0  0  0
  3  2  1  0  0  0
  6  7  1  0  0  0
  2  5  1  0  0  0
  2  4  1  0  0  0
  7  4  2  0  0  0
  5  9  2  0  0  0
  4  8  1  0  0  0
  9 11  1  0  0  0
  9  1  1  0  0  0
  8  1  2  0  0  0
 15 17  1  0  0  0
M  END
> <minimizedAffinity>
-6.76316

$$$$
5K03_6P4_A_301


 17 19  0  0  0  0  0  0  0  0999 V2000
   18.6634   14.7440   18.0480 C   0  0  0  0  0  0  0  0  0  0  0  0
   20.9901   14.8449   19.5715 N   0  0  0  0  0  0  0  0  0  0  0  0
   22.1905   14.5816   20.2631 C   0  0  0  0  0  0  0  0  0  0  0  0
   20.5902   13.6314   18.9846 C   0  0  0  0  0  0  0  0  0  0  0  0
   20.2472   16.0090   19.4131 C   0  0  0  0  0  0  0  0  0  0  0  0
   22.4571   13.2194   20.0685 C   0  0  0  0  0  0  0  0  0  0  0  0
   21.4742   12.6370   19.2843 N   0  0  0  0  0  0  0  0  0  0  0  0
   19.3933   13.6073   18.1955 C   0  0  0  0  0  0  0  0  0  0  0  0
   19.0916   15.9670   18.6575 C   0  0  0  0  0  0  0  0  0  0  0  0
   23.6141   12.4540   20.5959 C   0  0  0  0  0  0  0  0  0  0  0  0
   18.2547   17.2013   18.4539 C   0  0  0  0  0  0  0  0  0  0  0  0
   22.7595   15.8065   22.4367 C   0  0  0  0  0  0  0  0  0  0  0  0
   23.6688   16.8017   22.7517 C   0  0  0  0  0  0  0  0  0  0  0  0
   22.9116   15.5542   21.0328 C   0  0  0  0  0  0  0  0  0  0  0  0
   23.8926   16.3432   20.5122 N   0  0  0  0  0  0  0  0  0  0  0  0
   24.3315   17.0922   21.5824 N   0  0  0  0  0  0  0  0  0  0  0  0
   24.2148   16.3717   19.5824 H   0  0  0  0  0  0  0  0  0  0  0  0
 16 15  1  0  0  0
 16 13  2  0  0  0
 15 14  1  0  0  0
 13 12  1  0  0  0
 14 12  2  0  0  0
 14  3  1  0  0  0
 10  6  1  0  0  0
  3  6  2  0  0  0
  3  2  1  0  0  0
  6  7  1  0  0  0
  2  5  1  0  0  0
  2  4  1  0  0  0
  7  4  2  0  0  0
  5  9  2  0  0  0
  4  8  1  0  0  0
  9 11  1  0  0  0
  9  1  1  0  0  0
  8  1  2  0  0  0
 15 17  1  0  0  0
M  END
> <minimizedAffinity>
-6.46163

$$$$
5K03_6P4_A_301


 17 19  0  0  0  0  0  0  0  0999 V2000
   23.5567   13.2539   20.5288 C   0  0  0  0  0  0  0  0  0  0  0  0
   21.0952   13.7939   19.3480 N   0  0  0  0  0  0  0  0  0  0  0  0
   19.8996   14.3664   18.8671 C   0  0  0  0  0  0  0  0  0  0  0  0
   21.7713   14.8068   20.0507 C   0  0  0  0  0  0  0  0  0  0  0  0
   21.6255   12.5148   19.2264 C   0  0  0  0  0  0  0  0  0  0  0  0
   19.9045   15.6970   19.3073 C   0  0  0  0  0  0  0  0  0  0  0  0
   21.0533   15.9663   20.0342 N   0  0  0  0  0  0  0  0  0  0  0  0
   23.0429   14.5069   20.6414 C   0  0  0  0  0  0  0  0  0  0  0  0
   22.8473   12.2393   19.8091 C   0  0  0  0  0  0  0  0  0  0  0  0
   18.8606   16.7219   19.0575 C   0  0  0  0  0  0  0  0  0  0  0  0
   23.4647   10.8708   19.7026 C   0  0  0  0  0  0  0  0  0  0  0  0
   18.2025   14.1298   16.9663 C   0  0  0  0  0  0  0  0  0  0  0  0
   17.3610   13.1039   16.5715 C   0  0  0  0  0  0  0  0  0  0  0  0
   18.9012   13.6521   18.1246 C   0  0  0  0  0  0  0  0  0  0  0  0
   18.5240   12.3754   18.4134 N   0  0  0  0  0  0  0  0  0  0  0  0
   17.5844   12.0717   17.4523 N   0  0  0  0  0  0  0  0  0  0  0  0
   18.8490   11.8001   19.1433 H   0  0  0  0  0  0  0  0  0  0  0  0
 16 15  1  0  0  0
 16 13  2  0  0  0
 15 14  1  0  0  0
 13 12  1  0  0  0
 14 12  2  0  0  0
 14  3  1  0  0  0
 10  6  1  0  0  0
  3  6  2  0  0  0
  3  2  1  0  0  0
  6  7  1  0  0  0
  2  5  1  0  0  0
  2  4  1  0  0  0
  7  4  2  0  0  0
  5  9  2  0  0  0
  4  8  1  0  0  0
  9 11  1  0  0  0
  9  1  1  0  0  0
  8  1  2  0  0  0
 15 17  1  0  0  0
M  END
> <minimizedAffinity>
-6.40462

$$$$
5K03_6P4_A_301


 17 19  0  0  0  0  0  0  0  0999 V2000
   21.0966   11.6021   18.2726 C   0  0  0  0  0  0  0  0  0  0  0  0
   21.4068   14.0439   19.5712 N   0  0  0  0  0  0  0  0  0  0  0  0
   21.2824   15.3521   20.0827 C   0  0  0  0  0  0  0  0  0  0  0  0
   20.2954   13.8315   18.7367 C   0  0  0  0  0  0  0  0  0  0  0  0
   22.3680   13.0590   19.7670 C   0  0  0  0  0  0  0  0  0  0  0  0
   20.1053   15.8729   19.5282 C   0  0  0  0  0  0  0  0  0  0  0  0
   19.5005   14.9392   18.7018 N   0  0  0  0  0  0  0  0  0  0  0  0
   20.1522   12.5614   18.0869 C   0  0  0  0  0  0  0  0  0  0  0  0
   22.2205   11.8441   19.1265 C   0  0  0  0  0  0  0  0  0  0  0  0
   19.5326   17.2224   19.7598 C   0  0  0  0  0  0  0  0  0  0  0  0
   23.2324   10.7449   19.3090 C   0  0  0  0  0  0  0  0  0  0  0  0
   22.4987   15.6202   22.3183 C   0  0  0  0  0  0  0  0  0  0  0  0
   23.5075   16.4636   22.7513 C   0  0  0  0  0  0  0  0  0  0  0  0
   22.2375   15.9754   20.9531 C   0  0  0  0  0  0  0  0  0  0  0  0
   23.0700   16.9778   20.5558 N   0  0  0  0  0  0  0  0  0  0  0  0
   23.8282   17.2542   21.6728 N   0  0  0  0  0  0  0  0  0  0  0  0
   23.1190   17.4073   19.6713 H   0  0  0  0  0  0  0  0  0  0  0  0
 16 15  1  0  0  0
 16 13  2  0  0  0
 15 14  1  0  0  0
 13 12  1  0  0  0
 14 12  2  0  0  0
 14  3  1  0  0  0
 10  6  1  0  0  0
  3  6  2  0  0  0
  3  2  1  0  0  0
  6  7  1  0  0  0
  2  5  1  0  0  0
  2  4  1  0  0  0
  7  4  2  0  0  0
  5  9  2  0  0  0
  4  8  1  0  0  0
  9 11  1  0  0  0
  9  1  1  0  0  0
  8  1  2  0  0  0
 15 17  1  0  0  0
M  END
> <minimizedAffinity>
-6.23819

$$$$
