5NK2_8ZZ_A_1001


 37 40  0  0  0  0  0  0  0  0999 V2000
  -86.9138  -15.6593    5.3300 N   0  0  0  0  0  0  0  0  0  0  0  0
  -87.0343  -15.4146    4.3840 H   0  0  0  0  0  0  0  0  0  0  0  0
  -84.1036  -14.9341    7.6261 C   0  0  0  0  0  0  0  0  0  0  0  0
  -85.4102  -15.0513    7.1433 C   0  0  0  0  0  0  0  0  0  0  0  0
  -83.0444  -15.2854    6.8048 C   0  0  0  0  0  0  0  0  0  0  0  0
  -83.2941  -15.7364    5.5153 C   0  0  0  0  0  0  0  0  0  0  0  0
  -84.5983  -15.8614    5.0421 C   0  0  0  0  0  0  0  0  0  0  0  0
  -85.6759  -15.5358    5.8599 C   0  0  0  0  0  0  0  0  0  0  0  0
  -84.7602  -14.8385    9.8471 N   0  0  0  0  0  0  0  0  0  0  0  0
  -83.8545  -14.4634    8.9194 C   0  0  0  0  0  0  0  0  0  0  0  0
  -82.8679  -13.7645    9.1410 O   0  0  0  0  0  0  0  0  0  0  0  0
  -85.4998  -15.4103    9.5383 H   0  0  0  0  0  0  0  0  0  0  0  0
  -86.7558  -13.8035   11.3732 F   0  0  0  0  0  0  0  0  0  0  0  0
  -86.1149  -14.7130   11.9385 C   0  0  0  0  0  0  0  0  0  0  0  0
  -86.0688  -14.3928   13.4319 C   0  0  0  0  0  0  0  0  0  0  0  0
  -84.7973  -13.7447   13.7732 N   0  0  0  0  0  0  0  0  0  0  0  0
  -83.7312  -14.7261   13.5285 C   0  0  0  0  0  0  0  0  0  0  0  0
  -83.6681  -15.1866   12.0710 C   0  0  0  0  0  0  0  0  0  0  0  0
  -84.7526  -14.4736   11.2919 C   0  0  0  0  0  0  0  0  0  0  0  0
  -84.7987  -13.4674   14.7548 H   0  0  0  0  0  0  0  0  0  0  0  0
  -87.9957  -16.0951    6.0095 C   0  0  0  0  0  0  0  0  0  0  0  0
  -88.0784  -17.0066    7.4334 S   0  0  0  0  0  0  0  0  0  0  0  0
  -89.2608  -15.8409    5.6158 N   0  0  0  0  0  0  0  0  0  0  0  0
  -90.2315  -16.3602    6.4119 C   0  0  0  0  0  0  0  0  0  0  0  0
  -89.7867  -17.0442    7.4800 C   0  0  0  0  0  0  0  0  0  0  0  0
  -90.4950  -17.6769    8.4565 C   0  0  0  0  0  0  0  0  0  0  0  0
  -89.9472  -17.8915    9.5410 O   0  0  0  0  0  0  0  0  0  0  0  0
  -91.7910  -18.0356    8.2174 N   0  0  0  0  0  0  0  0  0  0  0  0
  -92.2048  -17.8566    7.3422 H   0  0  0  0  0  0  0  0  0  0  0  0
  -92.5080  -18.6483    9.2128 C   0  0  0  0  0  0  0  0  0  0  0  0
  -93.1756  -17.8937   10.1789 C   0  0  0  0  0  0  0  0  0  0  0  0
  -93.1560  -16.1439   10.1605 Cl  0  0  0  0  0  0  0  0  0  0  0  0
  -93.8950  -18.5324   11.1930 C   0  0  0  0  0  0  0  0  0  0  0  0
  -93.9481  -19.9246   11.2500 C   0  0  0  0  0  0  0  0  0  0  0  0
  -93.2645  -20.6761   10.2924 C   0  0  0  0  0  0  0  0  0  0  0  0
  -92.5480  -20.0449    9.2749 C   0  0  0  0  0  0  0  0  0  0  0  0
  -91.8705  -20.8269    8.3370 C   0  0  0  0  0  0  0  0  0  0  0  0
 15 16  1  0  0  0
 15 14  1  0  0  0
 13 14  1  0  0  0
 11 10  2  0  0  0
 16 17  1  0  0  0
 14 19  1  0  0  0
 17 18  1  0  0  0
 19 18  1  0  0  0
 19  9  1  0  0  0
 10  9  1  0  0  0
 10  3  1  0  0  0
  4  3  2  0  0  0
  4  8  1  0  0  0
  3  5  1  0  0  0
  1  8  1  0  0  0
  1 21  1  0  0  0
 23 21  2  0  0  0
 23 24  1  0  0  0
  8  7  2  0  0  0
 21 22  1  0  0  0
 24 25  2  0  0  0
  5  6  2  0  0  0
  7  6  1  0  0  0
 22 25  1  0  0  0
 25 26  1  0  0  0
 32 31  1  0  0  0
 28 26  1  0  0  0
 28 30  1  0  0  0
 26 27  2  0  0  0
 30 31  2  0  0  0
 30 36  1  0  0  0
 31 33  1  0  0  0
 36 37  1  0  0  0
 36 35  2  0  0  0
 33 34  2  0  0  0
 35 34  1  0  0  0
 16 20  1  0  0  0
  9 12  1  0  0  0
  1  2  1  0  0  0
 28 29  1  0  0  0
M  END
> <minimizedAffinity>
-10.76771

$$$$
5NK2_8ZZ_A_1001


 37 40  0  0  0  0  0  0  0  0999 V2000
  -86.4056  -15.8569    5.8470 N   0  0  0  0  0  0  0  0  0  0  0  0
  -86.2041  -15.8408    4.8835 H   0  0  0  0  0  0  0  0  0  0  0  0
  -84.4584  -15.0351    8.8848 C   0  0  0  0  0  0  0  0  0  0  0  0
  -85.5538  -15.2782    8.0511 C   0  0  0  0  0  0  0  0  0  0  0  0
  -83.1780  -15.1167    8.3614 C   0  0  0  0  0  0  0  0  0  0  0  0
  -83.0022  -15.4264    7.0191 C   0  0  0  0  0  0  0  0  0  0  0  0
  -84.0964  -15.6779    6.1946 C   0  0  0  0  0  0  0  0  0  0  0  0
  -85.3888  -15.6239    6.7073 C   0  0  0  0  0  0  0  0  0  0  0  0
  -85.9074  -14.8174   10.6809 N   0  0  0  0  0  0  0  0  0  0  0  0
  -84.6393  -14.7066   10.2323 C   0  0  0  0  0  0  0  0  0  0  0  0
  -83.6800  -14.3509   10.9136 O   0  0  0  0  0  0  0  0  0  0  0  0
  -86.5815  -15.1249   10.0326 H   0  0  0  0  0  0  0  0  0  0  0  0
  -87.6930  -12.9479   11.5171 F   0  0  0  0  0  0  0  0  0  0  0  0
  -87.8454  -14.0619   12.0588 C   0  0  0  0  0  0  0  0  0  0  0  0
  -88.3384  -13.8236   13.4853 C   0  0  0  0  0  0  0  0  0  0  0  0
  -87.2167  -13.8940   14.4286 N   0  0  0  0  0  0  0  0  0  0  0  0
  -86.7062  -15.2715   14.3931 C   0  0  0  0  0  0  0  0  0  0  0  0
  -86.2056  -15.6861   13.0082 C   0  0  0  0  0  0  0  0  0  0  0  0
  -86.3892  -14.5208   12.0595 C   0  0  0  0  0  0  0  0  0  0  0  0
  -87.5362  -13.6637   15.3695 H   0  0  0  0  0  0  0  0  0  0  0  0
  -87.6783  -16.1101    6.2191 C   0  0  0  0  0  0  0  0  0  0  0  0
  -88.2588  -16.9813    7.5491 S   0  0  0  0  0  0  0  0  0  0  0  0
  -88.7474  -15.6652    5.5268 N   0  0  0  0  0  0  0  0  0  0  0  0
  -89.9563  -16.0170    6.0373 C   0  0  0  0  0  0  0  0  0  0  0  0
  -89.9078  -16.7502    7.1627 C   0  0  0  0  0  0  0  0  0  0  0  0
  -90.9293  -17.2531    7.9104 C   0  0  0  0  0  0  0  0  0  0  0  0
  -92.0784  -16.8684    7.6783 O   0  0  0  0  0  0  0  0  0  0  0  0
  -90.6581  -18.1794    8.8768 N   0  0  0  0  0  0  0  0  0  0  0  0
  -89.7321  -18.4678    9.0456 H   0  0  0  0  0  0  0  0  0  0  0  0
  -91.6932  -18.7023    9.6086 C   0  0  0  0  0  0  0  0  0  0  0  0
  -92.2445  -17.9896   10.6747 C   0  0  0  0  0  0  0  0  0  0  0  0
  -91.6691  -16.3971   11.1169 Cl  0  0  0  0  0  0  0  0  0  0  0  0
  -93.2932  -18.5393   11.4174 C   0  0  0  0  0  0  0  0  0  0  0  0
  -93.7933  -19.8025   11.1029 C   0  0  0  0  0  0  0  0  0  0  0  0
  -93.2276  -20.5199   10.0472 C   0  0  0  0  0  0  0  0  0  0  0  0
  -92.1833  -19.9751    9.2990 C   0  0  0  0  0  0  0  0  0  0  0  0
  -91.6365  -20.7224    8.2537 C   0  0  0  0  0  0  0  0  0  0  0  0
 15 16  1  0  0  0
 15 14  1  0  0  0
 13 14  1  0  0  0
 11 10  2  0  0  0
 16 17  1  0  0  0
 14 19  1  0  0  0
 17 18  1  0  0  0
 19 18  1  0  0  0
 19  9  1  0  0  0
 10  9  1  0  0  0
 10  3  1  0  0  0
  4  3  2  0  0  0
  4  8  1  0  0  0
  3  5  1  0  0  0
  1  8  1  0  0  0
  1 21  1  0  0  0
 23 21  2  0  0  0
 23 24  1  0  0  0
  8  7  2  0  0  0
 21 22  1  0  0  0
 24 25  2  0  0  0
  5  6  2  0  0  0
  7  6  1  0  0  0
 22 25  1  0  0  0
 25 26  1  0  0  0
 32 31  1  0  0  0
 28 26  1  0  0  0
 28 30  1  0  0  0
 26 27  2  0  0  0
 30 31  2  0  0  0
 30 36  1  0  0  0
 31 33  1  0  0  0
 36 37  1  0  0  0
 36 35  2  0  0  0
 33 34  2  0  0  0
 35 34  1  0  0  0
 16 20  1  0  0  0
  9 12  1  0  0  0
  1  2  1  0  0  0
 28 29  1  0  0  0
M  END
> <minimizedAffinity>
-10.67780

$$$$
5NK2_8ZZ_A_1001


 37 40  0  0  0  0  0  0  0  0999 V2000
  -86.8670  -15.5566    5.3267 N   0  0  0  0  0  0  0  0  0  0  0  0
  -87.0016  -15.2646    4.3962 H   0  0  0  0  0  0  0  0  0  0  0  0
  -83.9885  -14.9551    7.5734 C   0  0  0  0  0  0  0  0  0  0  0  0
  -85.3073  -15.0169    7.1141 C   0  0  0  0  0  0  0  0  0  0  0  0
  -82.9595  -15.3469    6.7321 C   0  0  0  0  0  0  0  0  0  0  0  0
  -83.2508  -15.7829    5.4462 C   0  0  0  0  0  0  0  0  0  0  0  0
  -84.5673  -15.8526    4.9964 C   0  0  0  0  0  0  0  0  0  0  0  0
  -85.6158  -15.4858    5.8344 C   0  0  0  0  0  0  0  0  0  0  0  0
  -84.4924  -14.9925    9.8356 N   0  0  0  0  0  0  0  0  0  0  0  0
  -83.6970  -14.4993    8.8632 C   0  0  0  0  0  0  0  0  0  0  0  0
  -82.7724  -13.7095    9.0430 O   0  0  0  0  0  0  0  0  0  0  0  0
  -85.1908  -15.6280    9.5569 H   0  0  0  0  0  0  0  0  0  0  0  0
  -86.2271  -13.5794   11.3773 F   0  0  0  0  0  0  0  0  0  0  0  0
  -85.8071  -14.6202   11.9232 C   0  0  0  0  0  0  0  0  0  0  0  0
  -85.7066  -14.3520   13.4241 C   0  0  0  0  0  0  0  0  0  0  0  0
  -84.3274  -14.0071   13.7870 N   0  0  0  0  0  0  0  0  0  0  0  0
  -83.5004  -15.1928   13.5234 C   0  0  0  0  0  0  0  0  0  0  0  0
  -83.5255  -15.6227   12.0555 C   0  0  0  0  0  0  0  0  0  0  0  0
  -84.4192  -14.6713   11.2889 C   0  0  0  0  0  0  0  0  0  0  0  0
  -84.2775  -13.7587   14.7751 H   0  0  0  0  0  0  0  0  0  0  0  0
  -87.9442  -16.0001    6.0087 C   0  0  0  0  0  0  0  0  0  0  0  0
  -88.0172  -16.9443    7.4116 S   0  0  0  0  0  0  0  0  0  0  0  0
  -89.2119  -15.7273    5.6361 N   0  0  0  0  0  0  0  0  0  0  0  0
  -90.1771  -16.2578    6.4314 C   0  0  0  0  0  0  0  0  0  0  0  0
  -89.7251  -16.9702    7.4778 C   0  0  0  0  0  0  0  0  0  0  0  0
  -90.4268  -17.6204    8.4475 C   0  0  0  0  0  0  0  0  0  0  0  0
  -89.8469  -17.9296    9.4918 O   0  0  0  0  0  0  0  0  0  0  0  0
  -91.7503  -17.8921    8.2475 N   0  0  0  0  0  0  0  0  0  0  0  0
  -92.1897  -17.6384    7.4038 H   0  0  0  0  0  0  0  0  0  0  0  0
  -92.4587  -18.5230    9.2377 C   0  0  0  0  0  0  0  0  0  0  0  0
  -92.4815  -19.9161    9.3215 C   0  0  0  0  0  0  0  0  0  0  0  0
  -91.5982  -20.9238    8.1958 Cl  0  0  0  0  0  0  0  0  0  0  0  0
  -93.2154  -20.5455   10.3309 C   0  0  0  0  0  0  0  0  0  0  0  0
  -93.9321  -19.7890   11.2575 C   0  0  0  0  0  0  0  0  0  0  0  0
  -93.9213  -18.3964   11.1599 C   0  0  0  0  0  0  0  0  0  0  0  0
  -93.1872  -17.7616   10.1572 C   0  0  0  0  0  0  0  0  0  0  0  0
  -93.2033  -16.3671   10.0847 C   0  0  0  0  0  0  0  0  0  0  0  0
 15 16  1  0  0  0
 15 14  1  0  0  0
 13 14  1  0  0  0
 11 10  2  0  0  0
 16 17  1  0  0  0
 14 19  1  0  0  0
 17 18  1  0  0  0
 19 18  1  0  0  0
 19  9  1  0  0  0
 10  9  1  0  0  0
 10  3  1  0  0  0
  4  3  2  0  0  0
  4  8  1  0  0  0
  3  5  1  0  0  0
  1  8  1  0  0  0
  1 21  1  0  0  0
 23 21  2  0  0  0
 23 24  1  0  0  0
  8  7  2  0  0  0
 21 22  1  0  0  0
 24 25  2  0  0  0
  5  6  2  0  0  0
  7  6  1  0  0  0
 22 25  1  0  0  0
 25 26  1  0  0  0
 32 31  1  0  0  0
 28 26  1  0  0  0
 28 30  1  0  0  0
 26 27  2  0  0  0
 30 31  2  0  0  0
 30 36  1  0  0  0
 31 33  1  0  0  0
 36 37  1  0  0  0
 36 35  2  0  0  0
 33 34  2  0  0  0
 35 34  1  0  0  0
 16 20  1  0  0  0
  9 12  1  0  0  0
  1  2  1  0  0  0
 28 29  1  0  0  0
M  END
> <minimizedAffinity>
-10.61186

$$$$
5NK2_8ZZ_A_1001


 37 40  0  0  0  0  0  0  0  0999 V2000
  -86.6947  -15.5510    5.3137 N   0  0  0  0  0  0  0  0  0  0  0  0
  -86.8191  -15.2305    4.3912 H   0  0  0  0  0  0  0  0  0  0  0  0
  -83.8167  -15.1332    7.6024 C   0  0  0  0  0  0  0  0  0  0  0  0
  -85.1351  -15.1544    7.1383 C   0  0  0  0  0  0  0  0  0  0  0  0
  -82.7883  -15.4650    6.7350 C   0  0  0  0  0  0  0  0  0  0  0  0
  -83.0796  -15.8017    5.4196 C   0  0  0  0  0  0  0  0  0  0  0  0
  -84.3958  -15.8315    4.9644 C   0  0  0  0  0  0  0  0  0  0  0  0
  -85.4438  -15.5242    5.8266 C   0  0  0  0  0  0  0  0  0  0  0  0
  -82.4786  -15.4295    9.4717 N   0  0  0  0  0  0  0  0  0  0  0  0
  -83.5250  -14.7771    8.9231 C   0  0  0  0  0  0  0  0  0  0  0  0
  -84.2020  -13.9255    9.4953 O   0  0  0  0  0  0  0  0  0  0  0  0
  -82.0133  -16.0814    8.8990 H   0  0  0  0  0  0  0  0  0  0  0  0
  -82.4015  -17.2218   11.5124 F   0  0  0  0  0  0  0  0  0  0  0  0
  -81.3516  -16.5581   11.3903 C   0  0  0  0  0  0  0  0  0  0  0  0
  -80.7669  -16.3486   12.7864 C   0  0  0  0  0  0  0  0  0  0  0  0
  -81.1436  -15.0274   13.3016 N   0  0  0  0  0  0  0  0  0  0  0  0
  -80.5081  -14.0263   12.4336 C   0  0  0  0  0  0  0  0  0  0  0  0
  -80.9604  -14.1284   10.9757 C   0  0  0  0  0  0  0  0  0  0  0  0
  -81.9570  -15.2617   10.8575 C   0  0  0  0  0  0  0  0  0  0  0  0
  -80.8133  -14.9188   14.2605 H   0  0  0  0  0  0  0  0  0  0  0  0
  -87.7844  -15.9873    5.9802 C   0  0  0  0  0  0  0  0  0  0  0  0
  -87.8844  -16.8673    7.4226 S   0  0  0  0  0  0  0  0  0  0  0  0
  -89.0444  -15.7609    5.5542 N   0  0  0  0  0  0  0  0  0  0  0  0
  -90.0244  -16.2762    6.3416 C   0  0  0  0  0  0  0  0  0  0  0  0
  -89.5927  -16.9291    7.4343 C   0  0  0  0  0  0  0  0  0  0  0  0
  -90.3125  -17.5499    8.4099 C   0  0  0  0  0  0  0  0  0  0  0  0
  -89.7519  -17.8284    9.4732 O   0  0  0  0  0  0  0  0  0  0  0  0
  -91.6325  -17.8265    8.1942 N   0  0  0  0  0  0  0  0  0  0  0  0
  -92.0563  -17.5976    7.3356 H   0  0  0  0  0  0  0  0  0  0  0  0
  -92.3594  -18.4274    9.1897 C   0  0  0  0  0  0  0  0  0  0  0  0
  -92.3982  -19.8179    9.3045 C   0  0  0  0  0  0  0  0  0  0  0  0
  -91.5124  -20.8601    8.2126 Cl  0  0  0  0  0  0  0  0  0  0  0  0
  -93.1509  -20.4165   10.3188 C   0  0  0  0  0  0  0  0  0  0  0  0
  -93.8704  -19.6318   11.2193 C   0  0  0  0  0  0  0  0  0  0  0  0
  -93.8434  -18.2419   11.0905 C   0  0  0  0  0  0  0  0  0  0  0  0
  -93.0906  -17.6378   10.0829 C   0  0  0  0  0  0  0  0  0  0  0  0
  -93.0908  -16.2452    9.9787 C   0  0  0  0  0  0  0  0  0  0  0  0
 15 16  1  0  0  0
 15 14  1  0  0  0
 13 14  1  0  0  0
 11 10  2  0  0  0
 16 17  1  0  0  0
 14 19  1  0  0  0
 17 18  1  0  0  0
 19 18  1  0  0  0
 19  9  1  0  0  0
 10  9  1  0  0  0
 10  3  1  0  0  0
  4  3  2  0  0  0
  4  8  1  0  0  0
  3  5  1  0  0  0
  1  8  1  0  0  0
  1 21  1  0  0  0
 23 21  2  0  0  0
 23 24  1  0  0  0
  8  7  2  0  0  0
 21 22  1  0  0  0
 24 25  2  0  0  0
  5  6  2  0  0  0
  7  6  1  0  0  0
 22 25  1  0  0  0
 25 26  1  0  0  0
 32 31  1  0  0  0
 28 26  1  0  0  0
 28 30  1  0  0  0
 26 27  2  0  0  0
 30 31  2  0  0  0
 30 36  1  0  0  0
 31 33  1  0  0  0
 36 37  1  0  0  0
 36 35  2  0  0  0
 33 34  2  0  0  0
 35 34  1  0  0  0
 16 20  1  0  0  0
  9 12  1  0  0  0
  1  2  1  0  0  0
 28 29  1  0  0  0
M  END
> <minimizedAffinity>
-10.14009

$$$$
5NK2_8ZZ_A_1001


 37 40  0  0  0  0  0  0  0  0999 V2000
  -85.8055  -16.6672    8.4753 N   0  0  0  0  0  0  0  0  0  0  0  0
  -85.1639  -17.3351    8.1412 H   0  0  0  0  0  0  0  0  0  0  0  0
  -89.3150  -16.6367    7.3015 C   0  0  0  0  0  0  0  0  0  0  0  0
  -88.2008  -16.8834    8.1088 C   0  0  0  0  0  0  0  0  0  0  0  0
  -89.1462  -15.9636    6.1021 C   0  0  0  0  0  0  0  0  0  0  0  0
  -87.8765  -15.5554    5.7153 C   0  0  0  0  0  0  0  0  0  0  0  0
  -86.7706  -15.7945    6.5279 C   0  0  0  0  0  0  0  0  0  0  0  0
  -86.9234  -16.4480    7.7468 C   0  0  0  0  0  0  0  0  0  0  0  0
  -90.6185  -17.8773    8.7625 N   0  0  0  0  0  0  0  0  0  0  0  0
  -90.5902  -17.0640    7.6858 C   0  0  0  0  0  0  0  0  0  0  0  0
  -91.5792  -16.6951    7.0558 O   0  0  0  0  0  0  0  0  0  0  0  0
  -89.7531  -18.0866    9.1826 H   0  0  0  0  0  0  0  0  0  0  0  0
  -91.9959  -20.0975    8.0166 F   0  0  0  0  0  0  0  0  0  0  0  0
  -91.8166  -20.0111    9.2487 C   0  0  0  0  0  0  0  0  0  0  0  0
  -93.0332  -20.6235    9.9414 C   0  0  0  0  0  0  0  0  0  0  0  0
  -93.9720  -19.5701   10.3439 N   0  0  0  0  0  0  0  0  0  0  0  0
  -93.2929  -18.7469   11.3541 C   0  0  0  0  0  0  0  0  0  0  0  0
  -92.0172  -18.0877   10.8263 C   0  0  0  0  0  0  0  0  0  0  0  0
  -91.8290  -18.4899    9.3791 C   0  0  0  0  0  0  0  0  0  0  0  0
  -94.8148  -19.9858   10.7405 H   0  0  0  0  0  0  0  0  0  0  0  0
  -85.5092  -16.0328    9.6294 C   0  0  0  0  0  0  0  0  0  0  0  0
  -84.0489  -15.9759   10.4833 S   0  0  0  0  0  0  0  0  0  0  0  0
  -86.4090  -15.2962   10.3136 N   0  0  0  0  0  0  0  0  0  0  0  0
  -85.9455  -14.7318   11.4592 C   0  0  0  0  0  0  0  0  0  0  0  0
  -84.6550  -14.9848   11.7372 C   0  0  0  0  0  0  0  0  0  0  0  0
  -83.9022  -14.5711   12.7943 C   0  0  0  0  0  0  0  0  0  0  0  0
  -83.0283  -15.3250   13.2303 O   0  0  0  0  0  0  0  0  0  0  0  0
  -84.1197  -13.3321   13.3264 N   0  0  0  0  0  0  0  0  0  0  0  0
  -84.8259  -12.7501   12.9633 H   0  0  0  0  0  0  0  0  0  0  0  0
  -83.3412  -12.9098   14.3734 C   0  0  0  0  0  0  0  0  0  0  0  0
  -82.1143  -12.2853   14.1433 C   0  0  0  0  0  0  0  0  0  0  0  0
  -81.5185  -11.9874   12.5250 Cl  0  0  0  0  0  0  0  0  0  0  0  0
  -81.3274  -11.8684   15.2206 C   0  0  0  0  0  0  0  0  0  0  0  0
  -81.7585  -12.0760   16.5304 C   0  0  0  0  0  0  0  0  0  0  0  0
  -82.9780  -12.7169   16.7568 C   0  0  0  0  0  0  0  0  0  0  0  0
  -83.7704  -13.1317   15.6858 C   0  0  0  0  0  0  0  0  0  0  0  0
  -84.9817  -13.7754   15.9480 C   0  0  0  0  0  0  0  0  0  0  0  0
 15 16  1  0  0  0
 15 14  1  0  0  0
 13 14  1  0  0  0
 11 10  2  0  0  0
 16 17  1  0  0  0
 14 19  1  0  0  0
 17 18  1  0  0  0
 19 18  1  0  0  0
 19  9  1  0  0  0
 10  9  1  0  0  0
 10  3  1  0  0  0
  4  3  2  0  0  0
  4  8  1  0  0  0
  3  5  1  0  0  0
  1  8  1  0  0  0
  1 21  1  0  0  0
 23 21  2  0  0  0
 23 24  1  0  0  0
  8  7  2  0  0  0
 21 22  1  0  0  0
 24 25  2  0  0  0
  5  6  2  0  0  0
  7  6  1  0  0  0
 22 25  1  0  0  0
 25 26  1  0  0  0
 32 31  1  0  0  0
 28 26  1  0  0  0
 28 30  1  0  0  0
 26 27  2  0  0  0
 30 31  2  0  0  0
 30 36  1  0  0  0
 31 33  1  0  0  0
 36 37  1  0  0  0
 36 35  2  0  0  0
 33 34  2  0  0  0
 35 34  1  0  0  0
 16 20  1  0  0  0
  9 12  1  0  0  0
  1  2  1  0  0  0
 28 29  1  0  0  0
M  END
> <minimizedAffinity>
-9.51053

$$$$
5NK2_8ZZ_A_1001


 37 40  0  0  0  0  0  0  0  0999 V2000
  -85.7582  -15.8995    7.0663 N   0  0  0  0  0  0  0  0  0  0  0  0
  -85.3334  -16.0109    6.1852 H   0  0  0  0  0  0  0  0  0  0  0  0
  -84.6320  -14.5815   10.3358 C   0  0  0  0  0  0  0  0  0  0  0  0
  -85.4811  -15.0502    9.3291 C   0  0  0  0  0  0  0  0  0  0  0  0
  -83.2719  -14.4912   10.0866 C   0  0  0  0  0  0  0  0  0  0  0  0
  -82.7751  -14.8552    8.8420 C   0  0  0  0  0  0  0  0  0  0  0  0
  -83.6238  -15.3315    7.8453 C   0  0  0  0  0  0  0  0  0  0  0  0
  -84.9892  -15.4516    8.0843 C   0  0  0  0  0  0  0  0  0  0  0  0
  -84.3320  -14.4693   12.6315 N   0  0  0  0  0  0  0  0  0  0  0  0
  -85.1374  -14.1994   11.5827 C   0  0  0  0  0  0  0  0  0  0  0  0
  -86.2388  -13.6593   11.6615 O   0  0  0  0  0  0  0  0  0  0  0  0
  -83.4682  -14.8958   12.4285 H   0  0  0  0  0  0  0  0  0  0  0  0
  -86.0334  -15.7357   14.3299 F   0  0  0  0  0  0  0  0  0  0  0  0
  -84.9267  -15.4662   14.8401 C   0  0  0  0  0  0  0  0  0  0  0  0
  -85.1566  -15.1617   16.3197 C   0  0  0  0  0  0  0  0  0  0  0  0
  -85.2304  -13.7121   16.5343 N   0  0  0  0  0  0  0  0  0  0  0  0
  -83.9121  -13.1565   16.1987 C   0  0  0  0  0  0  0  0  0  0  0  0
  -83.5088  -13.4145   14.7457 C   0  0  0  0  0  0  0  0  0  0  0  0
  -84.6196  -14.1864   14.0660 C   0  0  0  0  0  0  0  0  0  0  0  0
  -85.4554  -13.5140   17.5092 H   0  0  0  0  0  0  0  0  0  0  0  0
  -87.0687  -16.2042    7.1756 C   0  0  0  0  0  0  0  0  0  0  0  0
  -87.8771  -17.0647    8.3884 S   0  0  0  0  0  0  0  0  0  0  0  0
  -87.9873  -15.8323    6.2601 N   0  0  0  0  0  0  0  0  0  0  0  0
  -89.2603  -16.2284    6.5217 C   0  0  0  0  0  0  0  0  0  0  0  0
  -89.4172  -16.9260    7.6598 C   0  0  0  0  0  0  0  0  0  0  0  0
  -90.5503  -17.4570    8.1979 C   0  0  0  0  0  0  0  0  0  0  0  0
  -91.6328  -17.2132    7.6583 O   0  0  0  0  0  0  0  0  0  0  0  0
  -90.4560  -18.2570    9.3009 N   0  0  0  0  0  0  0  0  0  0  0  0
  -89.5807  -18.4338    9.7156 H   0  0  0  0  0  0  0  0  0  0  0  0
  -91.5968  -18.8107    9.8228 C   0  0  0  0  0  0  0  0  0  0  0  0
  -92.3316  -18.1402   10.8020 C   0  0  0  0  0  0  0  0  0  0  0  0
  -91.8578  -16.5631   11.3944 Cl  0  0  0  0  0  0  0  0  0  0  0  0
  -93.4874  -18.7211   11.3312 C   0  0  0  0  0  0  0  0  0  0  0  0
  -93.9126  -19.9736   10.8895 C   0  0  0  0  0  0  0  0  0  0  0  0
  -93.1653  -20.6491    9.9228 C   0  0  0  0  0  0  0  0  0  0  0  0
  -92.0129  -20.0729    9.3872 C   0  0  0  0  0  0  0  0  0  0  0  0
  -91.2857  -20.7787    8.4264 C   0  0  0  0  0  0  0  0  0  0  0  0
 15 16  1  0  0  0
 15 14  1  0  0  0
 13 14  1  0  0  0
 11 10  2  0  0  0
 16 17  1  0  0  0
 14 19  1  0  0  0
 17 18  1  0  0  0
 19 18  1  0  0  0
 19  9  1  0  0  0
 10  9  1  0  0  0
 10  3  1  0  0  0
  4  3  2  0  0  0
  4  8  1  0  0  0
  3  5  1  0  0  0
  1  8  1  0  0  0
  1 21  1  0  0  0
 23 21  2  0  0  0
 23 24  1  0  0  0
  8  7  2  0  0  0
 21 22  1  0  0  0
 24 25  2  0  0  0
  5  6  2  0  0  0
  7  6  1  0  0  0
 22 25  1  0  0  0
 25 26  1  0  0  0
 32 31  1  0  0  0
 28 26  1  0  0  0
 28 30  1  0  0  0
 26 27  2  0  0  0
 30 31  2  0  0  0
 30 36  1  0  0  0
 31 33  1  0  0  0
 36 37  1  0  0  0
 36 35  2  0  0  0
 33 34  2  0  0  0
 35 34  1  0  0  0
 16 20  1  0  0  0
  9 12  1  0  0  0
  1  2  1  0  0  0
 28 29  1  0  0  0
M  END
> <minimizedAffinity>
-9.43058

$$$$
5NK2_8ZZ_A_1001


 37 40  0  0  0  0  0  0  0  0999 V2000
  -84.5868  -15.6943    7.3630 N   0  0  0  0  0  0  0  0  0  0  0  0
  -83.9917  -15.9194    6.6117 H   0  0  0  0  0  0  0  0  0  0  0  0
  -88.0969  -16.7288    7.9148 C   0  0  0  0  0  0  0  0  0  0  0  0
  -86.7342  -16.5241    8.1496 C   0  0  0  0  0  0  0  0  0  0  0  0
  -88.6424  -16.3316    6.7045 C   0  0  0  0  0  0  0  0  0  0  0  0
  -87.8290  -15.7485    5.7418 C   0  0  0  0  0  0  0  0  0  0  0  0
  -86.4736  -15.5371    5.9844 C   0  0  0  0  0  0  0  0  0  0  0  0
  -85.9123  -15.9078    7.2024 C   0  0  0  0  0  0  0  0  0  0  0  0
  -90.2173  -17.4132    8.5536 N   0  0  0  0  0  0  0  0  0  0  0  0
  -88.9102  -17.3319    8.8797 C   0  0  0  0  0  0  0  0  0  0  0  0
  -88.4196  -17.7423    9.9294 O   0  0  0  0  0  0  0  0  0  0  0  0
  -90.4777  -17.0553    7.6742 H   0  0  0  0  0  0  0  0  0  0  0  0
  -92.0957  -16.1438   10.0514 F   0  0  0  0  0  0  0  0  0  0  0  0
  -92.5472  -17.1012    9.3901 C   0  0  0  0  0  0  0  0  0  0  0  0
  -93.6719  -17.7407   10.2031 C   0  0  0  0  0  0  0  0  0  0  0  0
  -93.1709  -18.9143   10.9275 N   0  0  0  0  0  0  0  0  0  0  0  0
  -92.7731  -19.9079    9.9206 C   0  0  0  0  0  0  0  0  0  0  0  0
  -91.6705  -19.4030    8.9881 C   0  0  0  0  0  0  0  0  0  0  0  0
  -91.3059  -17.9903    9.3918 C   0  0  0  0  0  0  0  0  0  0  0  0
  -93.9045  -19.2960   11.5246 H   0  0  0  0  0  0  0  0  0  0  0  0
  -84.0238  -15.1937    8.4831 C   0  0  0  0  0  0  0  0  0  0  0  0
  -84.2891  -15.6118   10.1016 S   0  0  0  0  0  0  0  0  0  0  0  0
  -83.0962  -14.2142    8.4632 N   0  0  0  0  0  0  0  0  0  0  0  0
  -82.6393  -13.8233    9.6815 C   0  0  0  0  0  0  0  0  0  0  0  0
  -83.1740  -14.4772   10.7270 C   0  0  0  0  0  0  0  0  0  0  0  0
  -82.9300  -14.3232   12.0582 C   0  0  0  0  0  0  0  0  0  0  0  0
  -82.3414  -15.2249   12.6606 O   0  0  0  0  0  0  0  0  0  0  0  0
  -83.3223  -13.1731   12.6818 N   0  0  0  0  0  0  0  0  0  0  0  0
  -83.7938  -12.4694   12.1800 H   0  0  0  0  0  0  0  0  0  0  0  0
  -83.0504  -13.0117   14.0161 C   0  0  0  0  0  0  0  0  0  0  0  0
  -83.9275  -13.4985   14.9867 C   0  0  0  0  0  0  0  0  0  0  0  0
  -85.3939  -14.3537   14.5610 Cl  0  0  0  0  0  0  0  0  0  0  0  0
  -83.6417  -13.3186   16.3430 C   0  0  0  0  0  0  0  0  0  0  0  0
  -82.4832  -12.6496   16.7365 C   0  0  0  0  0  0  0  0  0  0  0  0
  -81.6172  -12.1485   15.7628 C   0  0  0  0  0  0  0  0  0  0  0  0
  -81.8944  -12.3285   14.4071 C   0  0  0  0  0  0  0  0  0  0  0  0
  -81.0101  -11.8089   13.4594 C   0  0  0  0  0  0  0  0  0  0  0  0
 15 16  1  0  0  0
 15 14  1  0  0  0
 13 14  1  0  0  0
 11 10  2  0  0  0
 16 17  1  0  0  0
 14 19  1  0  0  0
 17 18  1  0  0  0
 19 18  1  0  0  0
 19  9  1  0  0  0
 10  9  1  0  0  0
 10  3  1  0  0  0
  4  3  2  0  0  0
  4  8  1  0  0  0
  3  5  1  0  0  0
  1  8  1  0  0  0
  1 21  1  0  0  0
 23 21  2  0  0  0
 23 24  1  0  0  0
  8  7  2  0  0  0
 21 22  1  0  0  0
 24 25  2  0  0  0
  5  6  2  0  0  0
  7  6  1  0  0  0
 22 25  1  0  0  0
 25 26  1  0  0  0
 32 31  1  0  0  0
 28 26  1  0  0  0
 28 30  1  0  0  0
 26 27  2  0  0  0
 30 31  2  0  0  0
 30 36  1  0  0  0
 31 33  1  0  0  0
 36 37  1  0  0  0
 36 35  2  0  0  0
 33 34  2  0  0  0
 35 34  1  0  0  0
 16 20  1  0  0  0
  9 12  1  0  0  0
  1  2  1  0  0  0
 28 29  1  0  0  0
M  END
> <minimizedAffinity>
-9.10515

$$$$
5NK2_8ZZ_A_1001


 37 40  0  0  0  0  0  0  0  0999 V2000
  -86.1497  -14.7765   14.1672 N   0  0  0  0  0  0  0  0  0  0  0  0
  -85.7812  -14.1030   14.7836 H   0  0  0  0  0  0  0  0  0  0  0  0
  -89.3792  -16.5836   14.1664 C   0  0  0  0  0  0  0  0  0  0  0  0
  -88.2537  -15.9024   13.6939 C   0  0  0  0  0  0  0  0  0  0  0  0
  -89.5181  -16.7987   15.5282 C   0  0  0  0  0  0  0  0  0  0  0  0
  -88.5470  -16.3267   16.4016 C   0  0  0  0  0  0  0  0  0  0  0  0
  -87.4220  -15.6575   15.9252 C   0  0  0  0  0  0  0  0  0  0  0  0
  -87.2532  -15.4526   14.5594 C   0  0  0  0  0  0  0  0  0  0  0  0
  -89.9369  -17.2848   12.0287 N   0  0  0  0  0  0  0  0  0  0  0  0
  -90.3641  -17.0427   13.2858 C   0  0  0  0  0  0  0  0  0  0  0  0
  -91.5180  -17.1989   13.6796 O   0  0  0  0  0  0  0  0  0  0  0  0
  -88.9818  -17.1289   11.8475 H   0  0  0  0  0  0  0  0  0  0  0  0
  -91.8320  -15.9614   10.6003 F   0  0  0  0  0  0  0  0  0  0  0  0
  -91.0588  -16.6415    9.8950 C   0  0  0  0  0  0  0  0  0  0  0  0
  -91.8561  -17.1674    8.7023 C   0  0  0  0  0  0  0  0  0  0  0  0
  -92.2968  -18.5442    8.9534 N   0  0  0  0  0  0  0  0  0  0  0  0
  -91.0890  -19.3766    9.0418 C   0  0  0  0  0  0  0  0  0  0  0  0
  -90.1526  -18.9500   10.1738 C   0  0  0  0  0  0  0  0  0  0  0  0
  -90.7664  -17.7644   10.8873 C   0  0  0  0  0  0  0  0  0  0  0  0
  -92.8886  -18.8670    8.1880 H   0  0  0  0  0  0  0  0  0  0  0  0
  -85.5188  -14.9621   12.9884 C   0  0  0  0  0  0  0  0  0  0  0  0
  -85.8264  -14.2595   11.4795 S   0  0  0  0  0  0  0  0  0  0  0  0
  -84.4708  -15.7989   12.8409 N   0  0  0  0  0  0  0  0  0  0  0  0
  -83.9589  -15.8715   11.5845 C   0  0  0  0  0  0  0  0  0  0  0  0
  -84.5682  -15.0913   10.6753 C   0  0  0  0  0  0  0  0  0  0  0  0
  -84.2977  -14.9379    9.3491 C   0  0  0  0  0  0  0  0  0  0  0  0
  -83.9891  -13.8179    8.9333 O   0  0  0  0  0  0  0  0  0  0  0  0
  -84.3544  -16.0251    8.5245 N   0  0  0  0  0  0  0  0  0  0  0  0
  -84.6068  -16.9080    8.8796 H   0  0  0  0  0  0  0  0  0  0  0  0
  -84.0551  -15.8704    7.1952 C   0  0  0  0  0  0  0  0  0  0  0  0
  -82.7286  -15.8095    6.7652 C   0  0  0  0  0  0  0  0  0  0  0  0
  -81.3883  -15.9500    7.8816 Cl  0  0  0  0  0  0  0  0  0  0  0  0
  -82.4390  -15.6424    5.4081 C   0  0  0  0  0  0  0  0  0  0  0  0
  -83.4699  -15.5314    4.4757 C   0  0  0  0  0  0  0  0  0  0  0  0
  -84.7955  -15.5750    4.9117 C   0  0  0  0  0  0  0  0  0  0  0  0
  -85.0916  -15.7460    6.2645 C   0  0  0  0  0  0  0  0  0  0  0  0
  -86.4284  -15.7789    6.6670 C   0  0  0  0  0  0  0  0  0  0  0  0
 15 16  1  0  0  0
 15 14  1  0  0  0
 13 14  1  0  0  0
 11 10  2  0  0  0
 16 17  1  0  0  0
 14 19  1  0  0  0
 17 18  1  0  0  0
 19 18  1  0  0  0
 19  9  1  0  0  0
 10  9  1  0  0  0
 10  3  1  0  0  0
  4  3  2  0  0  0
  4  8  1  0  0  0
  3  5  1  0  0  0
  1  8  1  0  0  0
  1 21  1  0  0  0
 23 21  2  0  0  0
 23 24  1  0  0  0
  8  7  2  0  0  0
 21 22  1  0  0  0
 24 25  2  0  0  0
  5  6  2  0  0  0
  7  6  1  0  0  0
 22 25  1  0  0  0
 25 26  1  0  0  0
 32 31  1  0  0  0
 28 26  1  0  0  0
 28 30  1  0  0  0
 26 27  2  0  0  0
 30 31  2  0  0  0
 30 36  1  0  0  0
 31 33  1  0  0  0
 36 37  1  0  0  0
 36 35  2  0  0  0
 33 34  2  0  0  0
 35 34  1  0  0  0
 16 20  1  0  0  0
  9 12  1  0  0  0
  1  2  1  0  0  0
 28 29  1  0  0  0
M  END
> <minimizedAffinity>
-9.08576

$$$$
5NK2_8ZZ_A_1001


 37 40  0  0  0  0  0  0  0  0999 V2000
  -84.3586  -16.4498    8.1509 N   0  0  0  0  0  0  0  0  0  0  0  0
  -84.0321  -17.2256    8.6616 H   0  0  0  0  0  0  0  0  0  0  0  0
  -88.0358  -16.6164    8.5329 C   0  0  0  0  0  0  0  0  0  0  0  0
  -86.6760  -16.7165    8.8414 C   0  0  0  0  0  0  0  0  0  0  0  0
  -88.4138  -16.1766    7.2744 C   0  0  0  0  0  0  0  0  0  0  0  0
  -87.4408  -15.8537    6.3377 C   0  0  0  0  0  0  0  0  0  0  0  0
  -86.0870  -15.9452    6.6531 C   0  0  0  0  0  0  0  0  0  0  0  0
  -85.6879  -16.3623    7.9191 C   0  0  0  0  0  0  0  0  0  0  0  0
  -90.1279  -17.5193    8.9578 N   0  0  0  0  0  0  0  0  0  0  0  0
  -89.0134  -16.9586    9.4728 C   0  0  0  0  0  0  0  0  0  0  0  0
  -88.8206  -16.7448   10.6678 O   0  0  0  0  0  0  0  0  0  0  0  0
  -90.1500  -17.6454    7.9817 H   0  0  0  0  0  0  0  0  0  0  0  0
  -92.0594  -16.0322   10.1580 F   0  0  0  0  0  0  0  0  0  0  0  0
  -92.5039  -17.0117    9.5251 C   0  0  0  0  0  0  0  0  0  0  0  0
  -93.7418  -17.5208   10.2622 C   0  0  0  0  0  0  0  0  0  0  0  0
  -93.3907  -18.6600   11.1176 N   0  0  0  0  0  0  0  0  0  0  0  0
  -92.9602  -19.7507   10.2319 C   0  0  0  0  0  0  0  0  0  0  0  0
  -91.7411  -19.3837    9.3837 C   0  0  0  0  0  0  0  0  0  0  0  0
  -91.3283  -17.9664    9.7191 C   0  0  0  0  0  0  0  0  0  0  0  0
  -94.2024  -18.9516   11.6622 H   0  0  0  0  0  0  0  0  0  0  0  0
  -83.4486  -15.5460    7.7298 C   0  0  0  0  0  0  0  0  0  0  0  0
  -82.6732  -15.4160    6.2309 S   0  0  0  0  0  0  0  0  0  0  0  0
  -82.9986  -14.5404    8.5086 N   0  0  0  0  0  0  0  0  0  0  0  0
  -82.0787  -13.7254    7.9296 C   0  0  0  0  0  0  0  0  0  0  0  0
  -81.7589  -14.0375    6.6619 C   0  0  0  0  0  0  0  0  0  0  0  0
  -80.8836  -13.4256    5.8165 C   0  0  0  0  0  0  0  0  0  0  0  0
  -79.6762  -13.6340    5.9615 O   0  0  0  0  0  0  0  0  0  0  0  0
  -81.3643  -12.6197    4.8241 N   0  0  0  0  0  0  0  0  0  0  0  0
  -82.3323  -12.4661    4.7311 H   0  0  0  0  0  0  0  0  0  0  0  0
  -80.4804  -12.0273    3.9590 C   0  0  0  0  0  0  0  0  0  0  0  0
  -79.8413  -10.8338    4.2987 C   0  0  0  0  0  0  0  0  0  0  0  0
  -80.1099  -10.0481    5.8393 Cl  0  0  0  0  0  0  0  0  0  0  0  0
  -78.9497  -10.2369    3.4030 C   0  0  0  0  0  0  0  0  0  0  0  0
  -78.6952  -10.8249    2.1645 C   0  0  0  0  0  0  0  0  0  0  0  0
  -79.3498  -12.0092    1.8210 C   0  0  0  0  0  0  0  0  0  0  0  0
  -80.2378  -12.6127    2.7123 C   0  0  0  0  0  0  0  0  0  0  0  0
  -80.8802  -13.7936    2.3342 C   0  0  0  0  0  0  0  0  0  0  0  0
 15 16  1  0  0  0
 15 14  1  0  0  0
 13 14  1  0  0  0
 11 10  2  0  0  0
 16 17  1  0  0  0
 14 19  1  0  0  0
 17 18  1  0  0  0
 19 18  1  0  0  0
 19  9  1  0  0  0
 10  9  1  0  0  0
 10  3  1  0  0  0
  4  3  2  0  0  0
  4  8  1  0  0  0
  3  5  1  0  0  0
  1  8  1  0  0  0
  1 21  1  0  0  0
 23 21  2  0  0  0
 23 24  1  0  0  0
  8  7  2  0  0  0
 21 22  1  0  0  0
 24 25  2  0  0  0
  5  6  2  0  0  0
  7  6  1  0  0  0
 22 25  1  0  0  0
 25 26  1  0  0  0
 32 31  1  0  0  0
 28 26  1  0  0  0
 28 30  1  0  0  0
 26 27  2  0  0  0
 30 31  2  0  0  0
 30 36  1  0  0  0
 31 33  1  0  0  0
 36 37  1  0  0  0
 36 35  2  0  0  0
 33 34  2  0  0  0
 35 34  1  0  0  0
 16 20  1  0  0  0
  9 12  1  0  0  0
  1  2  1  0  0  0
 28 29  1  0  0  0
M  END
> <minimizedAffinity>
-8.89171

$$$$
5NK2_8ZZ_A_1001


 37 40  0  0  0  0  0  0  0  0999 V2000
  -84.9273  -16.2178    7.6350 N   0  0  0  0  0  0  0  0  0  0  0  0
  -84.5492  -16.5258    6.7797 H   0  0  0  0  0  0  0  0  0  0  0  0
  -83.5297  -14.4885   10.5933 C   0  0  0  0  0  0  0  0  0  0  0  0
  -84.3903  -15.2579    9.8049 C   0  0  0  0  0  0  0  0  0  0  0  0
  -82.4012  -13.9291   10.0157 C   0  0  0  0  0  0  0  0  0  0  0  0
  -82.1480  -14.1304    8.6652 C   0  0  0  0  0  0  0  0  0  0  0  0
  -83.0030  -14.9064    7.8860 C   0  0  0  0  0  0  0  0  0  0  0  0
  -84.1286  -15.4959    8.4531 C   0  0  0  0  0  0  0  0  0  0  0  0
  -84.9446  -14.8220   12.3987 N   0  0  0  0  0  0  0  0  0  0  0  0
  -83.7964  -14.2733   11.9493 C   0  0  0  0  0  0  0  0  0  0  0  0
  -83.0089  -13.6265   12.6368 O   0  0  0  0  0  0  0  0  0  0  0  0
  -85.4802  -15.3266   11.7446 H   0  0  0  0  0  0  0  0  0  0  0  0
  -87.4388  -14.1515   13.2427 F   0  0  0  0  0  0  0  0  0  0  0  0
  -86.9566  -15.1352   13.8405 C   0  0  0  0  0  0  0  0  0  0  0  0
  -87.4718  -15.1057   15.2788 C   0  0  0  0  0  0  0  0  0  0  0  0
  -86.4701  -14.5018   16.1647 N   0  0  0  0  0  0  0  0  0  0  0  0
  -85.2991  -15.3896   16.1639 C   0  0  0  0  0  0  0  0  0  0  0  0
  -84.6818  -15.5607   14.7747 C   0  0  0  0  0  0  0  0  0  0  0  0
  -85.4827  -14.7406   13.7860 C   0  0  0  0  0  0  0  0  0  0  0  0
  -86.8445  -14.4177   17.1097 H   0  0  0  0  0  0  0  0  0  0  0  0
  -86.2075  -16.5449    7.9108 C   0  0  0  0  0  0  0  0  0  0  0  0
  -86.8336  -17.4641    9.1868 S   0  0  0  0  0  0  0  0  0  0  0  0
  -87.2467  -16.1498    7.1465 N   0  0  0  0  0  0  0  0  0  0  0  0
  -88.4681  -16.5737    7.5642 C   0  0  0  0  0  0  0  0  0  0  0  0
  -88.4606  -17.3181    8.6833 C   0  0  0  0  0  0  0  0  0  0  0  0
  -89.5041  -17.8858    9.3497 C   0  0  0  0  0  0  0  0  0  0  0  0
  -89.3037  -18.3579   10.4719 O   0  0  0  0  0  0  0  0  0  0  0  0
  -90.7408  -17.8982    8.7702 N   0  0  0  0  0  0  0  0  0  0  0  0
  -90.8747  -17.5183    7.8719 H   0  0  0  0  0  0  0  0  0  0  0  0
  -91.7935  -18.4470    9.4566 C   0  0  0  0  0  0  0  0  0  0  0  0
  -92.0767  -19.8102    9.3574 C   0  0  0  0  0  0  0  0  0  0  0  0
  -91.1013  -20.8877    8.3825 Cl  0  0  0  0  0  0  0  0  0  0  0  0
  -93.1586  -20.3538   10.0557 C   0  0  0  0  0  0  0  0  0  0  0  0
  -93.9641  -19.5402   10.8518 C   0  0  0  0  0  0  0  0  0  0  0  0
  -93.6886  -18.1741   10.9346 C   0  0  0  0  0  0  0  0  0  0  0  0
  -92.6075  -17.6258   10.2435 C   0  0  0  0  0  0  0  0  0  0  0  0
  -92.3640  -16.2543   10.3435 C   0  0  0  0  0  0  0  0  0  0  0  0
 15 16  1  0  0  0
 15 14  1  0  0  0
 13 14  1  0  0  0
 11 10  2  0  0  0
 16 17  1  0  0  0
 14 19  1  0  0  0
 17 18  1  0  0  0
 19 18  1  0  0  0
 19  9  1  0  0  0
 10  9  1  0  0  0
 10  3  1  0  0  0
  4  3  2  0  0  0
  4  8  1  0  0  0
  3  5  1  0  0  0
  1  8  1  0  0  0
  1 21  1  0  0  0
 23 21  2  0  0  0
 23 24  1  0  0  0
  8  7  2  0  0  0
 21 22  1  0  0  0
 24 25  2  0  0  0
  5  6  2  0  0  0
  7  6  1  0  0  0
 22 25  1  0  0  0
 25 26  1  0  0  0
 32 31  1  0  0  0
 28 26  1  0  0  0
 28 30  1  0  0  0
 26 27  2  0  0  0
 30 31  2  0  0  0
 30 36  1  0  0  0
 31 33  1  0  0  0
 36 37  1  0  0  0
 36 35  2  0  0  0
 33 34  2  0  0  0
 35 34  1  0  0  0
 16 20  1  0  0  0
  9 12  1  0  0  0
  1  2  1  0  0  0
 28 29  1  0  0  0
M  END
> <minimizedAffinity>
-8.84032

$$$$
