4P58_2F6_A_301


 13 14  0  0  0  0  0  0  0  0999 V2000
   17.9186   18.3038   16.7715 N   0  0  0  0  0  0  0  0  0  0  0  0
   18.8739   19.1122   14.5887 C   0  0  0  0  0  0  0  0  0  0  0  0
   16.6506   19.6983   15.6192 C   0  0  0  0  0  0  0  0  0  0  0  0
   16.0026   19.3664   16.7785 C   0  0  0  0  0  0  0  0  0  0  0  0
   16.5756   17.7950   18.7997 C   0  0  0  0  0  0  0  0  0  0  0  0
   16.8328   18.4666   17.4707 C   0  0  0  0  0  0  0  0  0  0  0  0
   17.8317   19.0565   15.6110 N   0  0  0  0  0  0  0  0  0  0  0  0
   14.6450   19.8536   17.1798 C   0  0  0  0  0  0  0  0  0  0  0  0
   12.4922   20.4260   16.9838 C   0  0  0  0  0  0  0  0  0  0  0  0
   13.5526   19.9731   16.3012 C   0  0  0  0  0  0  0  0  0  0  0  0
   12.8865   20.5943   18.2620 N   0  0  0  0  0  0  0  0  0  0  0  0
   14.2290   20.2373   18.3782 N   0  0  0  0  0  0  0  0  0  0  0  0
   12.3168   20.9179   18.9967 H   0  0  0  0  0  0  0  0  0  0  0  0
  2  7  1  0  0  0
  3  7  1  0  0  0
  3  4  2  0  0  0
  7  1  1  0  0  0
 10  9  2  0  0  0
 10  8  1  0  0  0
  4  8  1  0  0  0
  4  6  1  0  0  0
  1  6  2  0  0  0
  9 11  1  0  0  0
  8 12  2  0  0  0
  6  5  1  0  0  0
 11 12  1  0  0  0
 11 13  1  0  0  0
M  END
> <minimizedAffinity>
-7.36428

$$$$
4P58_2F6_A_301


 13 14  0  0  0  0  0  0  0  0999 V2000
   17.8589   18.6816   16.8958 N   0  0  0  0  0  0  0  0  0  0  0  0
   18.9533   19.2107   14.6929 C   0  0  0  0  0  0  0  0  0  0  0  0
   16.5769   19.6701   15.3928 C   0  0  0  0  0  0  0  0  0  0  0  0
   15.8457   19.4655   16.5318 C   0  0  0  0  0  0  0  0  0  0  0  0
   16.3649   18.3660   18.8565 C   0  0  0  0  0  0  0  0  0  0  0  0
   16.6905   18.8202   17.4526 C   0  0  0  0  0  0  0  0  0  0  0  0
   17.8168   19.1990   15.6109 N   0  0  0  0  0  0  0  0  0  0  0  0
   14.4053   19.8319   16.7117 C   0  0  0  0  0  0  0  0  0  0  0  0
   12.5390   20.5143   17.7374 C   0  0  0  0  0  0  0  0  0  0  0  0
   13.8407   20.2593   17.9275 C   0  0  0  0  0  0  0  0  0  0  0  0
   12.2708   20.2594   16.4410 N   0  0  0  0  0  0  0  0  0  0  0  0
   13.4368   19.8335   15.8069 N   0  0  0  0  0  0  0  0  0  0  0  0
   11.3910   20.3583   16.0105 H   0  0  0  0  0  0  0  0  0  0  0  0
  2  7  1  0  0  0
  3  7  1  0  0  0
  3  4  2  0  0  0
  7  1  1  0  0  0
 10  9  2  0  0  0
 10  8  1  0  0  0
  4  8  1  0  0  0
  4  6  1  0  0  0
  1  6  2  0  0  0
  9 11  1  0  0  0
  8 12  2  0  0  0
  6  5  1  0  0  0
 11 12  1  0  0  0
 11 13  1  0  0  0
M  END
> <minimizedAffinity>
-6.70924

$$$$
4P58_2F6_A_301


 13 14  0  0  0  0  0  0  0  0999 V2000
   14.8995   19.5550   18.4426 N   0  0  0  0  0  0  0  0  0  0  0  0
   12.7978   20.4827   17.4166 C   0  0  0  0  0  0  0  0  0  0  0  0
   14.9273   19.8122   16.2487 C   0  0  0  0  0  0  0  0  0  0  0  0
   16.1273   19.2881   16.6477 C   0  0  0  0  0  0  0  0  0  0  0  0
   17.1466   18.6372   18.9759 C   0  0  0  0  0  0  0  0  0  0  0  0
   16.0744   19.1581   18.0471 C   0  0  0  0  0  0  0  0  0  0  0  0
   14.1644   19.9713   17.3439 N   0  0  0  0  0  0  0  0  0  0  0  0
   17.2752   18.9684   15.7412 C   0  0  0  0  0  0  0  0  0  0  0  0
   19.0547   19.3073   14.4302 C   0  0  0  0  0  0  0  0  0  0  0  0
   18.1344   19.9301   15.1789 C   0  0  0  0  0  0  0  0  0  0  0  0
   18.7983   17.9859   14.5056 N   0  0  0  0  0  0  0  0  0  0  0  0
   17.6878   17.7805   15.3228 N   0  0  0  0  0  0  0  0  0  0  0  0
   19.3135   17.2783   14.0550 H   0  0  0  0  0  0  0  0  0  0  0  0
  2  7  1  0  0  0
  3  7  1  0  0  0
  3  4  2  0  0  0
  7  1  1  0  0  0
 10  9  2  0  0  0
 10  8  1  0  0  0
  4  8  1  0  0  0
  4  6  1  0  0  0
  1  6  2  0  0  0
  9 11  1  0  0  0
  8 12  2  0  0  0
  6  5  1  0  0  0
 11 12  1  0  0  0
 11 13  1  0  0  0
M  END
> <minimizedAffinity>
-6.67763

$$$$
4P58_2F6_A_301


 13 14  0  0  0  0  0  0  0  0999 V2000
   14.2332   20.2841   15.9551 N   0  0  0  0  0  0  0  0  0  0  0  0
   12.2533   21.2673   17.1567 C   0  0  0  0  0  0  0  0  0  0  0  0
   14.2038   20.0177   18.1479 C   0  0  0  0  0  0  0  0  0  0  0  0
   15.3428   19.4460   17.6483 C   0  0  0  0  0  0  0  0  0  0  0  0
   16.3319   19.1648   15.2346 C   0  0  0  0  0  0  0  0  0  0  0  0
   15.3130   19.6211   16.2531 C   0  0  0  0  0  0  0  0  0  0  0  0
   13.5209   20.5421   17.1156 N   0  0  0  0  0  0  0  0  0  0  0  0
   16.3810   18.7355   18.4599 C   0  0  0  0  0  0  0  0  0  0  0  0
   17.4829   17.0390   19.4129 C   0  0  0  0  0  0  0  0  0  0  0  0
   16.4260   17.3418   18.6468 C   0  0  0  0  0  0  0  0  0  0  0  0
   18.1005   18.1994   19.7120 N   0  0  0  0  0  0  0  0  0  0  0  0
   17.4092   19.2533   19.1166 N   0  0  0  0  0  0  0  0  0  0  0  0
   18.9112   18.2884   20.2635 H   0  0  0  0  0  0  0  0  0  0  0  0
  2  7  1  0  0  0
  3  7  1  0  0  0
  3  4  2  0  0  0
  7  1  1  0  0  0
 10  9  2  0  0  0
 10  8  1  0  0  0
  4  8  1  0  0  0
  4  6  1  0  0  0
  1  6  2  0  0  0
  9 11  1  0  0  0
  8 12  2  0  0  0
  6  5  1  0  0  0
 11 12  1  0  0  0
 11 13  1  0  0  0
M  END
> <minimizedAffinity>
-6.34894

$$$$
4P58_2F6_A_301


 13 14  0  0  0  0  0  0  0  0999 V2000
   17.5144   18.2081   17.3017 N   0  0  0  0  0  0  0  0  0  0  0  0
   17.7139   16.8875   19.4340 C   0  0  0  0  0  0  0  0  0  0  0  0
   15.8198   18.3821   18.7081 C   0  0  0  0  0  0  0  0  0  0  0  0
   15.5543   19.1405   17.5998 C   0  0  0  0  0  0  0  0  0  0  0  0
   16.8716   19.6628   15.3919 C   0  0  0  0  0  0  0  0  0  0  0  0
   16.6618   19.0168   16.7418 C   0  0  0  0  0  0  0  0  0  0  0  0
   17.0179   17.7995   18.5293 N   0  0  0  0  0  0  0  0  0  0  0  0
   14.3249   19.9699   17.3942 C   0  0  0  0  0  0  0  0  0  0  0  0
   12.5286   20.8178   16.3671 C   0  0  0  0  0  0  0  0  0  0  0  0
   13.5613   19.9780   16.2125 C   0  0  0  0  0  0  0  0  0  0  0  0
   12.6221   21.3361   17.6082 N   0  0  0  0  0  0  0  0  0  0  0  0
   13.7437   20.8052   18.2432 N   0  0  0  0  0  0  0  0  0  0  0  0
   11.9973   21.9863   18.0033 H   0  0  0  0  0  0  0  0  0  0  0  0
  2  7  1  0  0  0
  3  7  1  0  0  0
  3  4  2  0  0  0
  7  1  1  0  0  0
 10  9  2  0  0  0
 10  8  1  0  0  0
  4  8  1  0  0  0
  4  6  1  0  0  0
  1  6  2  0  0  0
  9 11  1  0  0  0
  8 12  2  0  0  0
  6  5  1  0  0  0
 11 12  1  0  0  0
 11 13  1  0  0  0
M  END
> <minimizedAffinity>
-6.10326

$$$$
4P58_2F6_A_301


 13 14  0  0  0  0  0  0  0  0999 V2000
   16.0236   19.2467   17.7879 N   0  0  0  0  0  0  0  0  0  0  0  0
   17.8465   18.8278   16.1050 C   0  0  0  0  0  0  0  0  0  0  0  0
   15.5376   19.7482   15.6922 C   0  0  0  0  0  0  0  0  0  0  0  0
   14.4581   20.0455   16.4797 C   0  0  0  0  0  0  0  0  0  0  0  0
   13.9566   19.8162   19.0446 C   0  0  0  0  0  0  0  0  0  0  0  0
   14.8017   19.6954   17.7978 C   0  0  0  0  0  0  0  0  0  0  0  0
   16.5063   19.2649   16.4890 N   0  0  0  0  0  0  0  0  0  0  0  0
   13.1555   20.5963   15.9887 C   0  0  0  0  0  0  0  0  0  0  0  0
   11.5763   22.1062   15.5120 C   0  0  0  0  0  0  0  0  0  0  0  0
   12.7983   21.9561   16.0412 C   0  0  0  0  0  0  0  0  0  0  0  0
   11.1571   20.8830   15.1306 N   0  0  0  0  0  0  0  0  0  0  0  0
   12.1444   19.9459   15.4309 N   0  0  0  0  0  0  0  0  0  0  0  0
   10.2911   20.6833   14.7071 H   0  0  0  0  0  0  0  0  0  0  0  0
  2  7  1  0  0  0
  3  7  1  0  0  0
  3  4  2  0  0  0
  7  1  1  0  0  0
 10  9  2  0  0  0
 10  8  1  0  0  0
  4  8  1  0  0  0
  4  6  1  0  0  0
  1  6  2  0  0  0
  9 11  1  0  0  0
  8 12  2  0  0  0
  6  5  1  0  0  0
 11 12  1  0  0  0
 11 13  1  0  0  0
M  END
> <minimizedAffinity>
-4.45553

$$$$
