1Q65_BHB_A_900


 25 26  0  0  0  0  0  0  0  0999 V2000
   19.5989   17.6113   18.1686 N   0  0  0  0  0  0  0  0  0  0  0  0
   18.4961   17.3921   19.1977 C   0  0  0  0  0  0  0  0  0  0  0  0
   17.1864   17.0420   18.7570 C   0  0  0  0  0  0  0  0  0  0  0  0
   16.1357   16.8316   19.6974 C   0  0  0  0  0  0  0  0  0  0  0  0
   16.4053   16.9782   21.0958 C   0  0  0  0  0  0  0  0  0  0  0  0
   15.4316   16.7923   22.0433 N   0  0  0  0  0  0  0  0  0  0  0  0
   15.6334   16.9153   23.3158 C   0  0  0  0  0  0  0  0  0  0  0  0
   14.6774   16.7329   24.1779 N   0  0  0  0  0  0  0  0  0  0  0  0
   16.8292   17.2347   23.8178 N   0  0  0  0  0  0  0  0  0  0  0  0
   17.9014   17.4544   23.0496 C   0  0  0  0  0  0  0  0  0  0  0  0
   18.9944   17.7468   23.5192 O   0  0  0  0  0  0  0  0  0  0  0  0
   17.7323   17.3293   21.5323 C   0  0  0  0  0  0  0  0  0  0  0  0
   18.7771   17.5368   20.5868 C   0  0  0  0  0  0  0  0  0  0  0  0
   19.4036   17.5110   17.2089 H   0  0  0  0  0  0  0  0  0  0  0  0
   20.5065   17.8532   18.4636 H   0  0  0  0  0  0  0  0  0  0  0  0
   13.7737   16.4955   23.8679 H   0  0  0  0  0  0  0  0  0  0  0  0
   14.8573   16.8322   25.1407 H   0  0  0  0  0  0  0  0  0  0  0  0
   16.9253   17.3117   24.7946 H   0  0  0  0  0  0  0  0  0  0  0  0
   14.7417   16.4496   19.1904 C   0  0  0  0  0  0  0  0  0  0  0  0
   14.6955   14.6540   18.9150 S   0  0  0  0  0  0  0  0  0  0  0  0
   13.0622   14.6289   18.1205 C   0  0  0  0  0  0  0  0  0  0  0  0
   12.3264   15.9659   18.2990 C   0  0  0  0  0  0  0  0  0  0  0  0
   11.6251   16.3624   17.0550 N   0  0  0  0  0  0  0  0  0  0  0  0
   11.6172   15.2386   16.0962 C   0  0  0  0  0  0  0  0  0  0  0  0
   12.2465   17.5523   16.4307 C   0  0  0  0  0  0  0  0  0  0  0  0
  1  2  1  0  0  0
  2  3  2  0  0  0
  2 13  1  0  0  0
  3  4  1  0  0  0
  4  5  2  0  0  0
  4 19  1  0  0  0
  5  6  1  0  0  0
  5 12  1  0  0  0
  6  7  2  0  0  0
  7  8  1  0  0  0
  7  9  1  0  0  0
  9 10  1  0  0  0
 10 11  2  0  0  0
 10 12  1  0  0  0
 12 13  2  0  0  0
 19 20  1  0  0  0
 20 21  1  0  0  0
 21 22  1  0  0  0
 22 23  1  0  0  0
 23 24  1  0  0  0
 23 25  1  0  0  0
  1 14  1  0  0  0
  1 15  1  0  0  0
  8 16  1  0  0  0
  8 17  1  0  0  0
  9 18  1  0  0  0
M  END
> <minimizedAffinity>
-8.58423

$$$$
1Q65_BHB_A_900


 25 26  0  0  0  0  0  0  0  0999 V2000
   19.4728   17.6112   18.1148 N   0  0  0  0  0  0  0  0  0  0  0  0
   18.3999   17.3920   19.1751 C   0  0  0  0  0  0  0  0  0  0  0  0
   17.0790   17.0381   18.7723 C   0  0  0  0  0  0  0  0  0  0  0  0
   16.0558   16.8275   19.7423 C   0  0  0  0  0  0  0  0  0  0  0  0
   16.3643   16.9780   21.1323 C   0  0  0  0  0  0  0  0  0  0  0  0
   15.4181   16.7921   22.1072 N   0  0  0  0  0  0  0  0  0  0  0  0
   15.6555   16.9185   23.3733 C   0  0  0  0  0  0  0  0  0  0  0  0
   14.7245   16.7360   24.2624 N   0  0  0  0  0  0  0  0  0  0  0  0
   16.8642   17.2416   23.8407 N   0  0  0  0  0  0  0  0  0  0  0  0
   17.9138   17.4618   23.0420 C   0  0  0  0  0  0  0  0  0  0  0  0
   19.0190   17.7577   23.4800 O   0  0  0  0  0  0  0  0  0  0  0  0
   17.7023   17.3329   21.5304 C   0  0  0  0  0  0  0  0  0  0  0  0
   18.7196   17.5405   20.5553 C   0  0  0  0  0  0  0  0  0  0  0  0
   19.2508   17.5083   17.1612 H   0  0  0  0  0  0  0  0  0  0  0  0
   20.3878   17.8558   18.3835 H   0  0  0  0  0  0  0  0  0  0  0  0
   13.8129   16.4959   23.9784 H   0  0  0  0  0  0  0  0  0  0  0  0
   14.9312   16.8379   25.2195 H   0  0  0  0  0  0  0  0  0  0  0  0
   16.9876   17.3210   24.8142 H   0  0  0  0  0  0  0  0  0  0  0  0
   14.6489   16.4414   19.2756 C   0  0  0  0  0  0  0  0  0  0  0  0
   14.7962   15.3001   17.8692 S   0  0  0  0  0  0  0  0  0  0  0  0
   13.7193   16.2426   16.7504 C   0  0  0  0  0  0  0  0  0  0  0  0
   12.9425   17.3353   17.5011 C   0  0  0  0  0  0  0  0  0  0  0  0
   12.9907   18.6246   16.7719 N   0  0  0  0  0  0  0  0  0  0  0  0
   13.3510   18.3953   15.3578 C   0  0  0  0  0  0  0  0  0  0  0  0
   13.9503   19.5681   17.3891 C   0  0  0  0  0  0  0  0  0  0  0  0
  1  2  1  0  0  0
  2  3  2  0  0  0
  2 13  1  0  0  0
  3  4  1  0  0  0
  4  5  2  0  0  0
  4 19  1  0  0  0
  5  6  1  0  0  0
  5 12  1  0  0  0
  6  7  2  0  0  0
  7  8  1  0  0  0
  7  9  1  0  0  0
  9 10  1  0  0  0
 10 11  2  0  0  0
 10 12  1  0  0  0
 12 13  2  0  0  0
 19 20  1  0  0  0
 20 21  1  0  0  0
 21 22  1  0  0  0
 22 23  1  0  0  0
 23 24  1  0  0  0
 23 25  1  0  0  0
  1 14  1  0  0  0
  1 15  1  0  0  0
  8 16  1  0  0  0
  8 17  1  0  0  0
  9 18  1  0  0  0
M  END
> <minimizedAffinity>
-7.95268

$$$$
1Q65_BHB_A_900


 25 26  0  0  0  0  0  0  0  0999 V2000
   15.9229   16.9269   23.7871 N   0  0  0  0  0  0  0  0  0  0  0  0
   16.2705   17.0795   22.3108 C   0  0  0  0  0  0  0  0  0  0  0  0
   15.2349   16.9929   21.3349 C   0  0  0  0  0  0  0  0  0  0  0  0
   15.5312   17.1313   19.9473 C   0  0  0  0  0  0  0  0  0  0  0  0
   16.8844   17.3561   19.5373 C   0  0  0  0  0  0  0  0  0  0  0  0
   17.2267   17.4919   18.2165 N   0  0  0  0  0  0  0  0  0  0  0  0
   18.4366   17.6954   17.8043 C   0  0  0  0  0  0  0  0  0  0  0  0
   18.7145   17.8142   16.5397 N   0  0  0  0  0  0  0  0  0  0  0  0
   19.4672   17.7959   18.6480 N   0  0  0  0  0  0  0  0  0  0  0  0
   19.3298   17.6905   19.9739 C   0  0  0  0  0  0  0  0  0  0  0  0
   20.2811   17.7842   20.7400 O   0  0  0  0  0  0  0  0  0  0  0  0
   17.9240   17.4451   20.5304 C   0  0  0  0  0  0  0  0  0  0  0  0
   17.6199   17.3068   21.9150 C   0  0  0  0  0  0  0  0  0  0  0  0
   14.9900   16.7698   24.0595 H   0  0  0  0  0  0  0  0  0  0  0  0
   16.6314   16.9853   24.4682 H   0  0  0  0  0  0  0  0  0  0  0  0
   17.9961   17.7492   15.8696 H   0  0  0  0  0  0  0  0  0  0  0  0
   19.6433   17.9691   16.2522 H   0  0  0  0  0  0  0  0  0  0  0  0
   20.3657   17.9541   18.2781 H   0  0  0  0  0  0  0  0  0  0  0  0
   14.3938   17.0400   18.9255 C   0  0  0  0  0  0  0  0  0  0  0  0
   13.8474   18.7232   18.5124 S   0  0  0  0  0  0  0  0  0  0  0  0
   12.9654   18.2652   16.9919 C   0  0  0  0  0  0  0  0  0  0  0  0
   12.7901   16.7430   16.8769 C   0  0  0  0  0  0  0  0  0  0  0  0
   11.3694   16.3530   17.0378 N   0  0  0  0  0  0  0  0  0  0  0  0
   11.2519   15.2563   18.0204 C   0  0  0  0  0  0  0  0  0  0  0  0
   10.7643   15.9424   15.7505 C   0  0  0  0  0  0  0  0  0  0  0  0
  1  2  1  0  0  0
  2  3  2  0  0  0
  2 13  1  0  0  0
  3  4  1  0  0  0
  4  5  2  0  0  0
  4 19  1  0  0  0
  5  6  1  0  0  0
  5 12  1  0  0  0
  6  7  2  0  0  0
  7  8  1  0  0  0
  7  9  1  0  0  0
  9 10  1  0  0  0
 10 11  2  0  0  0
 10 12  1  0  0  0
 12 13  2  0  0  0
 19 20  1  0  0  0
 20 21  1  0  0  0
 21 22  1  0  0  0
 22 23  1  0  0  0
 23 24  1  0  0  0
 23 25  1  0  0  0
  1 14  1  0  0  0
  1 15  1  0  0  0
  8 16  1  0  0  0
  8 17  1  0  0  0
  9 18  1  0  0  0
M  END
> <minimizedAffinity>
-7.01528

$$$$
1Q65_BHB_A_900


 25 26  0  0  0  0  0  0  0  0999 V2000
   15.2997   16.7593   23.0184 N   0  0  0  0  0  0  0  0  0  0  0  0
   15.8539   17.0506   21.6286 C   0  0  0  0  0  0  0  0  0  0  0  0
   14.9519   17.2891   20.5508 C   0  0  0  0  0  0  0  0  0  0  0  0
   15.4423   17.5636   19.2406 C   0  0  0  0  0  0  0  0  0  0  0  0
   16.8553   17.5950   19.0120 C   0  0  0  0  0  0  0  0  0  0  0  0
   17.3817   17.8492   17.7716 N   0  0  0  0  0  0  0  0  0  0  0  0
   18.6513   17.8862   17.5229 C   0  0  0  0  0  0  0  0  0  0  0  0
   19.1046   18.1276   16.3285 N   0  0  0  0  0  0  0  0  0  0  0  0
   19.5676   17.6804   18.4726 N   0  0  0  0  0  0  0  0  0  0  0  0
   19.2460   17.4181   19.7438 C   0  0  0  0  0  0  0  0  0  0  0  0
   20.0937   17.2308   20.6081 O   0  0  0  0  0  0  0  0  0  0  0  0
   17.7594   17.3556   20.1076 C   0  0  0  0  0  0  0  0  0  0  0  0
   17.2618   17.0832   21.4140 C   0  0  0  0  0  0  0  0  0  0  0  0
   14.3266   16.7370   23.1656 H   0  0  0  0  0  0  0  0  0  0  0  0
   15.9150   16.5934   23.7689 H   0  0  0  0  0  0  0  0  0  0  0  0
   18.4773   18.2874   15.5868 H   0  0  0  0  0  0  0  0  0  0  0  0
   20.0753   18.1507   16.1657 H   0  0  0  0  0  0  0  0  0  0  0  0
   20.5199   17.7236   18.2264 H   0  0  0  0  0  0  0  0  0  0  0  0
   14.4457   17.8223   18.1065 C   0  0  0  0  0  0  0  0  0  0  0  0
   13.0675   16.6486   18.2651 S   0  0  0  0  0  0  0  0  0  0  0  0
   13.2451   15.9271   16.6075 C   0  0  0  0  0  0  0  0  0  0  0  0
   14.6288   16.2219   16.0082 C   0  0  0  0  0  0  0  0  0  0  0  0
   14.5195   16.6617   14.5971 N   0  0  0  0  0  0  0  0  0  0  0  0
   15.8164   17.1914   14.1283 C   0  0  0  0  0  0  0  0  0  0  0  0
   13.4648   17.6858   14.4222 C   0  0  0  0  0  0  0  0  0  0  0  0
  1  2  1  0  0  0
  2  3  2  0  0  0
  2 13  1  0  0  0
  3  4  1  0  0  0
  4  5  2  0  0  0
  4 19  1  0  0  0
  5  6  1  0  0  0
  5 12  1  0  0  0
  6  7  2  0  0  0
  7  8  1  0  0  0
  7  9  1  0  0  0
  9 10  1  0  0  0
 10 11  2  0  0  0
 10 12  1  0  0  0
 12 13  2  0  0  0
 19 20  1  0  0  0
 20 21  1  0  0  0
 21 22  1  0  0  0
 22 23  1  0  0  0
 23 24  1  0  0  0
 23 25  1  0  0  0
  1 14  1  0  0  0
  1 15  1  0  0  0
  8 16  1  0  0  0
  8 17  1  0  0  0
  9 18  1  0  0  0
M  END
> <minimizedAffinity>
-6.72554

$$$$
1Q65_BHB_A_900


 25 26  0  0  0  0  0  0  0  0999 V2000
   19.1259   18.5696   15.3858 N   0  0  0  0  0  0  0  0  0  0  0  0
   18.2463   18.1971   16.5737 C   0  0  0  0  0  0  0  0  0  0  0  0
   16.8629   17.9252   16.3628 C   0  0  0  0  0  0  0  0  0  0  0  0
   16.0168   17.5750   17.4555 C   0  0  0  0  0  0  0  0  0  0  0  0
   16.5681   17.5009   18.7747 C   0  0  0  0  0  0  0  0  0  0  0  0
   15.7996   17.1735   19.8622 N   0  0  0  0  0  0  0  0  0  0  0  0
   16.2584   17.0960   21.0700 C   0  0  0  0  0  0  0  0  0  0  0  0
   15.4901   16.7853   22.0718 N   0  0  0  0  0  0  0  0  0  0  0  0
   17.5416   17.3286   21.3588 N   0  0  0  0  0  0  0  0  0  0  0  0
   18.4438   17.6610   20.4296 C   0  0  0  0  0  0  0  0  0  0  0  0
   19.6188   17.8724   20.7041 O   0  0  0  0  0  0  0  0  0  0  0  0
   17.9676   17.7744   18.9781 C   0  0  0  0  0  0  0  0  0  0  0  0
   18.8068   18.1226   17.8812 C   0  0  0  0  0  0  0  0  0  0  0  0
   18.7374   18.6208   14.4826 H   0  0  0  0  0  0  0  0  0  0  0  0
   20.0823   18.7590   15.5218 H   0  0  0  0  0  0  0  0  0  0  0  0
   14.5345   16.6027   21.9212 H   0  0  0  0  0  0  0  0  0  0  0  0
   15.8640   16.7327   22.9810 H   0  0  0  0  0  0  0  0  0  0  0  0
   17.8355   17.2521   22.2953 H   0  0  0  0  0  0  0  0  0  0  0  0
   14.5364   17.2821   17.1929 C   0  0  0  0  0  0  0  0  0  0  0  0
   14.4045   16.2390   15.7107 S   0  0  0  0  0  0  0  0  0  0  0  0
   12.7225   16.7601   15.2648 C   0  0  0  0  0  0  0  0  0  0  0  0
   11.8107   16.8426   16.4987 C   0  0  0  0  0  0  0  0  0  0  0  0
   11.3812   15.4943   16.9394 N   0  0  0  0  0  0  0  0  0  0  0  0
    9.9800   15.2516   16.5395 C   0  0  0  0  0  0  0  0  0  0  0  0
   11.5234   15.3248   18.4032 C   0  0  0  0  0  0  0  0  0  0  0  0
  1  2  1  0  0  0
  2  3  2  0  0  0
  2 13  1  0  0  0
  3  4  1  0  0  0
  4  5  2  0  0  0
  4 19  1  0  0  0
  5  6  1  0  0  0
  5 12  1  0  0  0
  6  7  2  0  0  0
  7  8  1  0  0  0
  7  9  1  0  0  0
  9 10  1  0  0  0
 10 11  2  0  0  0
 10 12  1  0  0  0
 12 13  2  0  0  0
 19 20  1  0  0  0
 20 21  1  0  0  0
 21 22  1  0  0  0
 22 23  1  0  0  0
 23 24  1  0  0  0
 23 25  1  0  0  0
  1 14  1  0  0  0
  1 15  1  0  0  0
  8 16  1  0  0  0
  8 17  1  0  0  0
  9 18  1  0  0  0
M  END
> <minimizedAffinity>
-6.36127

$$$$
1Q65_BHB_A_900


 25 26  0  0  0  0  0  0  0  0999 V2000
   15.3601   16.7570   23.0845 N   0  0  0  0  0  0  0  0  0  0  0  0
   15.9006   17.0305   21.6857 C   0  0  0  0  0  0  0  0  0  0  0  0
   14.9886   17.2037   20.6039 C   0  0  0  0  0  0  0  0  0  0  0  0
   15.4661   17.4600   19.2853 C   0  0  0  0  0  0  0  0  0  0  0  0
   16.8765   17.5397   19.0525 C   0  0  0  0  0  0  0  0  0  0  0  0
   17.3909   17.7793   17.8042 N   0  0  0  0  0  0  0  0  0  0  0  0
   18.6578   17.8584   17.5514 C   0  0  0  0  0  0  0  0  0  0  0  0
   19.0998   18.0836   16.3496 N   0  0  0  0  0  0  0  0  0  0  0  0
   19.5828   17.7148   18.5042 N   0  0  0  0  0  0  0  0  0  0  0  0
   19.2733   17.4760   19.7830 C   0  0  0  0  0  0  0  0  0  0  0  0
   20.1288   17.3459   20.6501 O   0  0  0  0  0  0  0  0  0  0  0  0
   17.7908   17.3663   20.1520 C   0  0  0  0  0  0  0  0  0  0  0  0
   17.3059   17.1116   21.4669 C   0  0  0  0  0  0  0  0  0  0  0  0
   14.3887   16.7012   23.2346 H   0  0  0  0  0  0  0  0  0  0  0  0
   15.9823   16.6362   23.8378 H   0  0  0  0  0  0  0  0  0  0  0  0
   18.4657   18.1981   15.6053 H   0  0  0  0  0  0  0  0  0  0  0  0
   20.0687   18.1396   16.1838 H   0  0  0  0  0  0  0  0  0  0  0  0
   20.5323   17.7879   18.2546 H   0  0  0  0  0  0  0  0  0  0  0  0
   14.4587   17.6482   18.1469 C   0  0  0  0  0  0  0  0  0  0  0  0
   14.0875   19.4198   17.9865 S   0  0  0  0  0  0  0  0  0  0  0  0
   13.6944   19.3684   16.2138 C   0  0  0  0  0  0  0  0  0  0  0  0
   12.1958   19.1286   15.9740 C   0  0  0  0  0  0  0  0  0  0  0  0
   11.9772   18.1441   14.8879 N   0  0  0  0  0  0  0  0  0  0  0  0
   11.2628   18.7799   13.7622 C   0  0  0  0  0  0  0  0  0  0  0  0
   11.2199   16.9637   15.3622 C   0  0  0  0  0  0  0  0  0  0  0  0
  1  2  1  0  0  0
  2  3  2  0  0  0
  2 13  1  0  0  0
  3  4  1  0  0  0
  4  5  2  0  0  0
  4 19  1  0  0  0
  5  6  1  0  0  0
  5 12  1  0  0  0
  6  7  2  0  0  0
  7  8  1  0  0  0
  7  9  1  0  0  0
  9 10  1  0  0  0
 10 11  2  0  0  0
 10 12  1  0  0  0
 12 13  2  0  0  0
 19 20  1  0  0  0
 20 21  1  0  0  0
 21 22  1  0  0  0
 22 23  1  0  0  0
 23 24  1  0  0  0
 23 25  1  0  0  0
  1 14  1  0  0  0
  1 15  1  0  0  0
  8 16  1  0  0  0
  8 17  1  0  0  0
  9 18  1  0  0  0
M  END
> <minimizedAffinity>
-6.29936

$$$$
1Q65_BHB_A_900


 25 26  0  0  0  0  0  0  0  0999 V2000
   13.8243   13.4917   19.6676 N   0  0  0  0  0  0  0  0  0  0  0  0
   13.5427   14.5124   18.5710 C   0  0  0  0  0  0  0  0  0  0  0  0
   14.5970   15.3536   18.1096 C   0  0  0  0  0  0  0  0  0  0  0  0
   14.3619   16.3173   17.0856 C   0  0  0  0  0  0  0  0  0  0  0  0
   13.0512   16.4379   16.5225 C   0  0  0  0  0  0  0  0  0  0  0  0
   12.7679   17.3505   15.5390 N   0  0  0  0  0  0  0  0  0  0  0  0
   11.5977   17.4916   15.0043 C   0  0  0  0  0  0  0  0  0  0  0  0
   11.3750   18.3743   14.0760 N   0  0  0  0  0  0  0  0  0  0  0  0
   10.5540   16.7430   15.3709 N   0  0  0  0  0  0  0  0  0  0  0  0
   10.6363   15.7996   16.3149 C   0  0  0  0  0  0  0  0  0  0  0  0
    9.6734   15.1177   16.6445 O   0  0  0  0  0  0  0  0  0  0  0  0
   11.9925   15.5818   16.9928 C   0  0  0  0  0  0  0  0  0  0  0  0
   12.2354   14.6206   18.0154 C   0  0  0  0  0  0  0  0  0  0  0  0
   14.7281   13.4178   20.0509 H   0  0  0  0  0  0  0  0  0  0  0  0
   13.1025   12.9064   19.9925 H   0  0  0  0  0  0  0  0  0  0  0  0
   12.1057   18.9557   13.7640 H   0  0  0  0  0  0  0  0  0  0  0  0
   10.4756   18.4614   13.6851 H   0  0  0  0  0  0  0  0  0  0  0  0
    9.6878   16.8922   14.9275 H   0  0  0  0  0  0  0  0  0  0  0  0
   15.5187   17.2004   16.6080 C   0  0  0  0  0  0  0  0  0  0  0  0
   15.7846   18.5200   17.8288 S   0  0  0  0  0  0  0  0  0  0  0  0
   17.4318   17.9610   18.3521 C   0  0  0  0  0  0  0  0  0  0  0  0
   17.3692   17.1741   19.6703 C   0  0  0  0  0  0  0  0  0  0  0  0
   18.4024   17.6424   20.6241 N   0  0  0  0  0  0  0  0  0  0  0  0
   19.6974   16.9963   20.3278 C   0  0  0  0  0  0  0  0  0  0  0  0
   18.0152   17.3735   22.0276 C   0  0  0  0  0  0  0  0  0  0  0  0
  1  2  1  0  0  0
  2  3  2  0  0  0
  2 13  1  0  0  0
  3  4  1  0  0  0
  4  5  2  0  0  0
  4 19  1  0  0  0
  5  6  1  0  0  0
  5 12  1  0  0  0
  6  7  2  0  0  0
  7  8  1  0  0  0
  7  9  1  0  0  0
  9 10  1  0  0  0
 10 11  2  0  0  0
 10 12  1  0  0  0
 12 13  2  0  0  0
 19 20  1  0  0  0
 20 21  1  0  0  0
 21 22  1  0  0  0
 22 23  1  0  0  0
 23 24  1  0  0  0
 23 25  1  0  0  0
  1 14  1  0  0  0
  1 15  1  0  0  0
  8 16  1  0  0  0
  8 17  1  0  0  0
  9 18  1  0  0  0
M  END
> <minimizedAffinity>
-6.06268

$$$$
1Q65_BHB_A_900


 25 26  0  0  0  0  0  0  0  0999 V2000
   11.0330   18.6285   13.5014 N   0  0  0  0  0  0  0  0  0  0  0  0
   11.7551   17.8229   14.5752 C   0  0  0  0  0  0  0  0  0  0  0  0
   13.1779   17.8718   14.6493 C   0  0  0  0  0  0  0  0  0  0  0  0
   13.8793   17.1281   15.6430 C   0  0  0  0  0  0  0  0  0  0  0  0
   13.1412   16.3242   16.5697 C   0  0  0  0  0  0  0  0  0  0  0  0
   13.7645   15.5853   17.5423 N   0  0  0  0  0  0  0  0  0  0  0  0
   13.1351   14.8462   18.3982 C   0  0  0  0  0  0  0  0  0  0  0  0
   13.7695   14.1591   19.3014 N   0  0  0  0  0  0  0  0  0  0  0  0
   11.8032   14.7454   18.4060 N   0  0  0  0  0  0  0  0  0  0  0  0
   11.0234   15.3927   17.5337 C   0  0  0  0  0  0  0  0  0  0  0  0
    9.8024   15.2941   17.5487 O   0  0  0  0  0  0  0  0  0  0  0  0
   11.7036   16.2830   16.4892 C   0  0  0  0  0  0  0  0  0  0  0  0
   11.0099   17.0297   15.4943 C   0  0  0  0  0  0  0  0  0  0  0  0
   11.5490   19.1764   12.8667 H   0  0  0  0  0  0  0  0  0  0  0  0
   10.0507   18.6010   13.4425 H   0  0  0  0  0  0  0  0  0  0  0  0
   14.7524   14.1931   19.3455 H   0  0  0  0  0  0  0  0  0  0  0  0
   13.2669   13.6048   19.9413 H   0  0  0  0  0  0  0  0  0  0  0  0
   11.3778   14.1704   19.0825 H   0  0  0  0  0  0  0  0  0  0  0  0
   15.4079   17.2087   15.6992 C   0  0  0  0  0  0  0  0  0  0  0  0
   15.8882   18.9365   15.9928 S   0  0  0  0  0  0  0  0  0  0  0  0
   16.1054   18.7674   17.7883 C   0  0  0  0  0  0  0  0  0  0  0  0
   17.5654   18.4590   18.1544 C   0  0  0  0  0  0  0  0  0  0  0  0
   17.6640   17.2305   18.9775 N   0  0  0  0  0  0  0  0  0  0  0  0
   16.3906   16.9908   19.6867 C   0  0  0  0  0  0  0  0  0  0  0  0
   18.7754   17.3113   19.9522 C   0  0  0  0  0  0  0  0  0  0  0  0
  1  2  1  0  0  0
  2  3  2  0  0  0
  2 13  1  0  0  0
  3  4  1  0  0  0
  4  5  2  0  0  0
  4 19  1  0  0  0
  5  6  1  0  0  0
  5 12  1  0  0  0
  6  7  2  0  0  0
  7  8  1  0  0  0
  7  9  1  0  0  0
  9 10  1  0  0  0
 10 11  2  0  0  0
 10 12  1  0  0  0
 12 13  2  0  0  0
 19 20  1  0  0  0
 20 21  1  0  0  0
 21 22  1  0  0  0
 22 23  1  0  0  0
 23 24  1  0  0  0
 23 25  1  0  0  0
  1 14  1  0  0  0
  1 15  1  0  0  0
  8 16  1  0  0  0
  8 17  1  0  0  0
  9 18  1  0  0  0
M  END
> <minimizedAffinity>
-5.96679

$$$$
1Q65_BHB_A_900


 25 26  0  0  0  0  0  0  0  0999 V2000
   18.3054   17.2518   18.8858 N   0  0  0  0  0  0  0  0  0  0  0  0
   16.7997   17.0884   18.7137 C   0  0  0  0  0  0  0  0  0  0  0  0
   16.0103   18.2168   18.3449 C   0  0  0  0  0  0  0  0  0  0  0  0
   14.6000   18.0930   18.1775 C   0  0  0  0  0  0  0  0  0  0  0  0
   13.9771   16.8210   18.3866 C   0  0  0  0  0  0  0  0  0  0  0  0
   12.6245   16.6461   18.2440 N   0  0  0  0  0  0  0  0  0  0  0  0
   12.0227   15.5145   18.4240 C   0  0  0  0  0  0  0  0  0  0  0  0
   10.7358   15.3970   18.2810 N   0  0  0  0  0  0  0  0  0  0  0  0
   12.6833   14.4048   18.7650 N   0  0  0  0  0  0  0  0  0  0  0  0
   14.0075   14.3787   18.9494 C   0  0  0  0  0  0  0  0  0  0  0  0
   14.6048   13.3559   19.2620 O   0  0  0  0  0  0  0  0  0  0  0  0
   14.7827   15.6856   18.7563 C   0  0  0  0  0  0  0  0  0  0  0  0
   16.1914   15.8170   18.9206 C   0  0  0  0  0  0  0  0  0  0  0  0
   18.7247   18.1310   18.7426 H   0  0  0  0  0  0  0  0  0  0  0  0
   18.8586   16.4782   19.1403 H   0  0  0  0  0  0  0  0  0  0  0  0
   10.1948   16.1805   18.0304 H   0  0  0  0  0  0  0  0  0  0  0  0
   10.3022   14.5247   18.4234 H   0  0  0  0  0  0  0  0  0  0  0  0
   12.1739   13.5710   18.8857 H   0  0  0  0  0  0  0  0  0  0  0  0
   13.7825   19.3239   17.7738 C   0  0  0  0  0  0  0  0  0  0  0  0
   14.7763   20.3337   16.6358 S   0  0  0  0  0  0  0  0  0  0  0  0
   14.5140   19.2837   15.1770 C   0  0  0  0  0  0  0  0  0  0  0  0
   13.0537   19.3315   14.7015 C   0  0  0  0  0  0  0  0  0  0  0  0
   12.5472   17.9746   14.3874 N   0  0  0  0  0  0  0  0  0  0  0  0
   11.3041   17.7096   15.1401 C   0  0  0  0  0  0  0  0  0  0  0  0
   13.5518   16.9304   14.6912 C   0  0  0  0  0  0  0  0  0  0  0  0
  1  2  1  0  0  0
  2  3  2  0  0  0
  2 13  1  0  0  0
  3  4  1  0  0  0
  4  5  2  0  0  0
  4 19  1  0  0  0
  5  6  1  0  0  0
  5 12  1  0  0  0
  6  7  2  0  0  0
  7  8  1  0  0  0
  7  9  1  0  0  0
  9 10  1  0  0  0
 10 11  2  0  0  0
 10 12  1  0  0  0
 12 13  2  0  0  0
 19 20  1  0  0  0
 20 21  1  0  0  0
 21 22  1  0  0  0
 22 23  1  0  0  0
 23 24  1  0  0  0
 23 25  1  0  0  0
  1 14  1  0  0  0
  1 15  1  0  0  0
  8 16  1  0  0  0
  8 17  1  0  0  0
  9 18  1  0  0  0
M  END
> <minimizedAffinity>
-5.83991

$$$$
1Q65_BHB_A_900


 25 26  0  0  0  0  0  0  0  0999 V2000
   18.9703   18.1888   16.2070 N   0  0  0  0  0  0  0  0  0  0  0  0
   18.0778   17.8658   17.3997 C   0  0  0  0  0  0  0  0  0  0  0  0
   16.7076   17.5388   17.1810 C   0  0  0  0  0  0  0  0  0  0  0  0
   15.8499   17.2330   18.2779 C   0  0  0  0  0  0  0  0  0  0  0  0
   16.3759   17.2598   19.6092 C   0  0  0  0  0  0  0  0  0  0  0  0
   15.5952   16.9787   20.7009 N   0  0  0  0  0  0  0  0  0  0  0  0
   16.0311   16.9922   21.9195 C   0  0  0  0  0  0  0  0  0  0  0  0
   15.2518   16.7224   22.9247 N   0  0  0  0  0  0  0  0  0  0  0  0
   17.3006   17.2819   22.2167 N   0  0  0  0  0  0  0  0  0  0  0  0
   18.2116   17.5820   21.2850 C   0  0  0  0  0  0  0  0  0  0  0  0
   19.3740   17.8463   21.5673 O   0  0  0  0  0  0  0  0  0  0  0  0
   17.7623   17.5884   19.8207 C   0  0  0  0  0  0  0  0  0  0  0  0
   18.6133   17.8917   18.7195 C   0  0  0  0  0  0  0  0  0  0  0  0
   18.5992   18.1706   15.2953 H   0  0  0  0  0  0  0  0  0  0  0  0
   19.9178   18.4157   16.3483 H   0  0  0  0  0  0  0  0  0  0  0  0
   14.3053   16.5014   22.7683 H   0  0  0  0  0  0  0  0  0  0  0  0
   15.6083   16.7391   23.8422 H   0  0  0  0  0  0  0  0  0  0  0  0
   17.5773   17.2740   23.1615 H   0  0  0  0  0  0  0  0  0  0  0  0
   14.3845   16.8789   18.0070 C   0  0  0  0  0  0  0  0  0  0  0  0
   13.8375   17.7672   16.5191 S   0  0  0  0  0  0  0  0  0  0  0  0
   13.8976   19.4251   17.2588 C   0  0  0  0  0  0  0  0  0  0  0  0
   14.6259   20.4247   16.3470 C   0  0  0  0  0  0  0  0  0  0  0  0
   13.7491   21.5665   15.9947 N   0  0  0  0  0  0  0  0  0  0  0  0
   13.0660   22.0738   17.2023 C   0  0  0  0  0  0  0  0  0  0  0  0
   12.7483   21.1934   14.9696 C   0  0  0  0  0  0  0  0  0  0  0  0
  1  2  1  0  0  0
  2  3  2  0  0  0
  2 13  1  0  0  0
  3  4  1  0  0  0
  4  5  2  0  0  0
  4 19  1  0  0  0
  5  6  1  0  0  0
  5 12  1  0  0  0
  6  7  2  0  0  0
  7  8  1  0  0  0
  7  9  1  0  0  0
  9 10  1  0  0  0
 10 11  2  0  0  0
 10 12  1  0  0  0
 12 13  2  0  0  0
 19 20  1  0  0  0
 20 21  1  0  0  0
 21 22  1  0  0  0
 22 23  1  0  0  0
 23 24  1  0  0  0
 23 25  1  0  0  0
  1 14  1  0  0  0
  1 15  1  0  0  0
  8 16  1  0  0  0
  8 17  1  0  0  0
  9 18  1  0  0  0
M  END
> <minimizedAffinity>
-5.71890

$$$$
