5J8U_6DL_A_301


 24 26  0  0  0  0  0  0  0  0999 V2000
   41.7530   -0.2656   -8.5796 C   0  0  0  0  0  0  0  0  0  0  0  0
   43.9236   -0.1023   -9.0244 C   0  0  0  0  0  0  0  0  0  0  0  0
   42.3630   -0.9921   -7.6748 N   0  0  0  0  0  0  0  0  0  0  0  0
   43.7392   -0.8862   -7.9367 N   0  0  0  0  0  0  0  0  0  0  0  0
   42.7009    0.2697   -9.4466 N   0  0  0  0  0  0  0  0  0  0  0  0
   44.9887    0.2124   -9.5506 O   0  0  0  0  0  0  0  0  0  0  0  0
   44.4549   -1.3137   -7.4130 H   0  0  0  0  0  0  0  0  0  0  0  0
   37.5636    0.2200   -9.1305 C   0  0  0  0  0  0  0  0  0  0  0  0
   38.1488   -1.0432   -9.3251 C   0  0  0  0  0  0  0  0  0  0  0  0
   39.5138   -1.2100   -9.0904 C   0  0  0  0  0  0  0  0  0  0  0  0
   40.2934   -0.0900   -8.7398 C   0  0  0  0  0  0  0  0  0  0  0  0
   39.6957    1.1741   -8.5649 C   0  0  0  0  0  0  0  0  0  0  0  0
   38.3435    1.3429   -8.7915 C   0  0  0  0  0  0  0  0  0  0  0  0
   36.2576    0.4107   -9.4020 O   0  0  0  0  0  0  0  0  0  0  0  0
   40.1148   -2.4211   -9.2111 O   0  0  0  0  0  0  0  0  0  0  0  0
   35.8702    1.2538   -9.2714 H   0  0  0  0  0  0  0  0  0  0  0  0
   41.0335   -2.5066   -9.0479 H   0  0  0  0  0  0  0  0  0  0  0  0
   42.4351    1.0660  -10.5785 C   0  0  0  0  0  0  0  0  0  0  0  0
   42.3112    2.4477  -10.4265 C   0  0  0  0  0  0  0  0  0  0  0  0
   42.0116    3.2368  -11.5361 C   0  0  0  0  0  0  0  0  0  0  0  0
   42.2715    0.4802  -11.8407 C   0  0  0  0  0  0  0  0  0  0  0  0
   41.8343    2.6531  -12.7874 C   0  0  0  0  0  0  0  0  0  0  0  0
   41.9529    1.2734  -12.9362 C   0  0  0  0  0  0  0  0  0  0  0  0
   42.5107    2.9961   -9.2029 F   0  0  0  0  0  0  0  0  0  0  0  0
  4  2  1  0  0  0
  4  3  1  0  0  0
  6  2  2  0  0  0
  2  5  1  0  0  0
  3  1  2  0  0  0
 24 19  1  0  0  0
  5  1  1  0  0  0
  5 18  1  0  0  0
  1 11  1  0  0  0
 19 18  2  0  0  0
 19 20  1  0  0  0
 18 21  1  0  0  0
 11 12  2  0  0  0
 11 10  1  0  0  0
 20 22  2  0  0  0
 15 10  1  0  0  0
 12 13  1  0  0  0
 10  9  2  0  0  0
 21 23  2  0  0  0
 22 23  1  0  0  0
 13  8  2  0  0  0
  9  8  1  0  0  0
  8 14  1  0  0  0
 14 16  1  0  0  0
 15 17  1  0  0  0
  4  7  1  0  0  0
M  END
> <minimizedAffinity>
-9.39457

$$$$
5J8U_6DL_A_301


 24 26  0  0  0  0  0  0  0  0999 V2000
   42.7223    0.5973   -9.8551 C   0  0  0  0  0  0  0  0  0  0  0  0
   42.6471   -0.6379   -8.0100 C   0  0  0  0  0  0  0  0  0  0  0  0
   43.9694    0.3844   -9.5116 N   0  0  0  0  0  0  0  0  0  0  0  0
   43.9361   -0.4083   -8.3522 N   0  0  0  0  0  0  0  0  0  0  0  0
   41.8849   -0.0014   -8.9186 N   0  0  0  0  0  0  0  0  0  0  0  0
   42.2288   -1.2866   -7.0537 O   0  0  0  0  0  0  0  0  0  0  0  0
   44.7243   -0.7432   -7.8664 H   0  0  0  0  0  0  0  0  0  0  0  0
   41.4281    2.9365  -13.1633 C   0  0  0  0  0  0  0  0  0  0  0  0
   41.9389    1.6454  -13.3820 C   0  0  0  0  0  0  0  0  0  0  0  0
   42.3113    0.8612  -12.2900 C   0  0  0  0  0  0  0  0  0  0  0  0
   42.2422    1.4094  -10.9939 C   0  0  0  0  0  0  0  0  0  0  0  0
   41.7438    2.7120  -10.7913 C   0  0  0  0  0  0  0  0  0  0  0  0
   41.3694    3.4903  -11.8694 C   0  0  0  0  0  0  0  0  0  0  0  0
   41.1121    3.7261  -14.2084 O   0  0  0  0  0  0  0  0  0  0  0  0
   42.7583   -0.4111  -12.4456 O   0  0  0  0  0  0  0  0  0  0  0  0
   40.7717    4.5864  -14.0596 H   0  0  0  0  0  0  0  0  0  0  0  0
   43.0023   -0.9170  -11.6956 H   0  0  0  0  0  0  0  0  0  0  0  0
   40.4765    0.0467   -8.9133 C   0  0  0  0  0  0  0  0  0  0  0  0
   39.7540   -1.0844   -9.2953 C   0  0  0  0  0  0  0  0  0  0  0  0
   38.3613   -1.0316   -9.3277 C   0  0  0  0  0  0  0  0  0  0  0  0
   39.8039    1.2219   -8.5531 C   0  0  0  0  0  0  0  0  0  0  0  0
   37.6934    0.1407   -8.9843 C   0  0  0  0  0  0  0  0  0  0  0  0
   38.4163    1.2702   -8.6085 C   0  0  0  0  0  0  0  0  0  0  0  0
   40.4250   -2.2214   -9.6034 F   0  0  0  0  0  0  0  0  0  0  0  0
  4  2  1  0  0  0
  4  3  1  0  0  0
  6  2  2  0  0  0
  2  5  1  0  0  0
  3  1  2  0  0  0
 24 19  1  0  0  0
  5  1  1  0  0  0
  5 18  1  0  0  0
  1 11  1  0  0  0
 19 18  2  0  0  0
 19 20  1  0  0  0
 18 21  1  0  0  0
 11 12  2  0  0  0
 11 10  1  0  0  0
 20 22  2  0  0  0
 15 10  1  0  0  0
 12 13  1  0  0  0
 10  9  2  0  0  0
 21 23  2  0  0  0
 22 23  1  0  0  0
 13  8  2  0  0  0
  9  8  1  0  0  0
  8 14  1  0  0  0
 14 16  1  0  0  0
 15 17  1  0  0  0
  4  7  1  0  0  0
M  END
> <minimizedAffinity>
-8.93272

$$$$
5J8U_6DL_A_301


 24 26  0  0  0  0  0  0  0  0999 V2000
   43.1353    0.4742   -9.9551 C   0  0  0  0  0  0  0  0  0  0  0  0
   42.9859   -0.6848   -8.0655 C   0  0  0  0  0  0  0  0  0  0  0  0
   44.3661    0.3050   -9.5365 N   0  0  0  0  0  0  0  0  0  0  0  0
   44.2865   -0.4395   -8.3477 N   0  0  0  0  0  0  0  0  0  0  0  0
   42.2610   -0.1045   -9.0400 N   0  0  0  0  0  0  0  0  0  0  0  0
   42.5299   -1.3029   -7.1062 O   0  0  0  0  0  0  0  0  0  0  0  0
   45.0539   -0.7354   -7.8067 H   0  0  0  0  0  0  0  0  0  0  0  0
   41.8129    2.6705  -13.3489 C   0  0  0  0  0  0  0  0  0  0  0  0
   42.2190    3.3569  -12.1914 C   0  0  0  0  0  0  0  0  0  0  0  0
   42.7033    2.6349  -11.1004 C   0  0  0  0  0  0  0  0  0  0  0  0
   42.7009    1.2269  -11.1516 C   0  0  0  0  0  0  0  0  0  0  0  0
   42.2747    0.5517  -12.3128 C   0  0  0  0  0  0  0  0  0  0  0  0
   41.7989    1.2628  -13.3973 C   0  0  0  0  0  0  0  0  0  0  0  0
   41.2948    3.3483  -14.3919 O   0  0  0  0  0  0  0  0  0  0  0  0
   43.1585    3.2541   -9.9815 O   0  0  0  0  0  0  0  0  0  0  0  0
   41.0249    2.8881  -15.1622 H   0  0  0  0  0  0  0  0  0  0  0  0
   43.4787    2.7460   -9.2622 H   0  0  0  0  0  0  0  0  0  0  0  0
   40.8537   -0.0893   -9.1121 C   0  0  0  0  0  0  0  0  0  0  0  0
   40.1701    1.0985   -8.8490 C   0  0  0  0  0  0  0  0  0  0  0  0
   38.7765    1.1111   -8.8826 C   0  0  0  0  0  0  0  0  0  0  0  0
   40.1423   -1.2564   -9.4200 C   0  0  0  0  0  0  0  0  0  0  0  0
   38.0691   -0.0521   -9.1736 C   0  0  0  0  0  0  0  0  0  0  0  0
   38.7529   -1.2379   -9.4307 C   0  0  0  0  0  0  0  0  0  0  0  0
   40.8805    2.2238   -8.5904 F   0  0  0  0  0  0  0  0  0  0  0  0
  4  2  1  0  0  0
  4  3  1  0  0  0
  6  2  2  0  0  0
  2  5  1  0  0  0
  3  1  2  0  0  0
 24 19  1  0  0  0
  5  1  1  0  0  0
  5 18  1  0  0  0
  1 11  1  0  0  0
 19 18  2  0  0  0
 19 20  1  0  0  0
 18 21  1  0  0  0
 11 12  2  0  0  0
 11 10  1  0  0  0
 20 22  2  0  0  0
 15 10  1  0  0  0
 12 13  1  0  0  0
 10  9  2  0  0  0
 21 23  2  0  0  0
 22 23  1  0  0  0
 13  8  2  0  0  0
  9  8  1  0  0  0
  8 14  1  0  0  0
 14 16  1  0  0  0
 15 17  1  0  0  0
  4  7  1  0  0  0
M  END
> <minimizedAffinity>
-8.61569

$$$$
5J8U_6DL_A_301


 24 26  0  0  0  0  0  0  0  0999 V2000
   41.7284   -0.2671   -8.6610 C   0  0  0  0  0  0  0  0  0  0  0  0
   43.9012    0.1048   -8.9376 C   0  0  0  0  0  0  0  0  0  0  0  0
   42.3305   -0.8968   -7.6813 N   0  0  0  0  0  0  0  0  0  0  0  0
   43.7062   -0.6580   -7.8369 N   0  0  0  0  0  0  0  0  0  0  0  0
   42.6869    0.3346   -9.4709 N   0  0  0  0  0  0  0  0  0  0  0  0
   44.9696    0.5105   -9.3897 O   0  0  0  0  0  0  0  0  0  0  0  0
   44.4149   -0.9920   -7.2407 H   0  0  0  0  0  0  0  0  0  0  0  0
   37.5378   -0.1988   -9.3853 C   0  0  0  0  0  0  0  0  0  0  0  0
   38.1856    0.9665   -8.9399 C   0  0  0  0  0  0  0  0  0  0  0  0
   39.5684    0.9546   -8.7559 C   0  0  0  0  0  0  0  0  0  0  0  0
   40.2771   -0.2485   -8.9440 C   0  0  0  0  0  0  0  0  0  0  0  0
   39.6114   -1.4138   -9.3744 C   0  0  0  0  0  0  0  0  0  0  0  0
   38.2429   -1.4053   -9.5625 C   0  0  0  0  0  0  0  0  0  0  0  0
   36.1971   -0.2197   -9.5187 O   0  0  0  0  0  0  0  0  0  0  0  0
   40.2469    2.0686   -8.3801 O   0  0  0  0  0  0  0  0  0  0  0  0
   35.7679   -0.9979   -9.8158 H   0  0  0  0  0  0  0  0  0  0  0  0
   41.1760    2.0342   -8.2633 H   0  0  0  0  0  0  0  0  0  0  0  0
   42.4380    1.0619  -10.6520 C   0  0  0  0  0  0  0  0  0  0  0  0
   42.4025    2.4559  -10.5999 C   0  0  0  0  0  0  0  0  0  0  0  0
   42.1202    3.1797  -11.7575 C   0  0  0  0  0  0  0  0  0  0  0  0
   42.2036    0.3975  -11.8631 C   0  0  0  0  0  0  0  0  0  0  0  0
   41.8724    2.5191  -12.9576 C   0  0  0  0  0  0  0  0  0  0  0  0
   41.9029    1.1276  -13.0065 C   0  0  0  0  0  0  0  0  0  0  0  0
   42.6694    3.0781   -9.4254 F   0  0  0  0  0  0  0  0  0  0  0  0
  4  2  1  0  0  0
  4  3  1  0  0  0
  6  2  2  0  0  0
  2  5  1  0  0  0
  3  1  2  0  0  0
 24 19  1  0  0  0
  5  1  1  0  0  0
  5 18  1  0  0  0
  1 11  1  0  0  0
 19 18  2  0  0  0
 19 20  1  0  0  0
 18 21  1  0  0  0
 11 12  2  0  0  0
 11 10  1  0  0  0
 20 22  2  0  0  0
 15 10  1  0  0  0
 12 13  1  0  0  0
 10  9  2  0  0  0
 21 23  2  0  0  0
 22 23  1  0  0  0
 13  8  2  0  0  0
  9  8  1  0  0  0
  8 14  1  0  0  0
 14 16  1  0  0  0
 15 17  1  0  0  0
  4  7  1  0  0  0
M  END
> <minimizedAffinity>
-7.79538

$$$$
5J8U_6DL_A_301


 24 26  0  0  0  0  0  0  0  0999 V2000
   42.1000    3.0718  -14.3179 C   0  0  0  0  0  0  0  0  0  0  0  0
   43.2928    3.6021  -16.1157 C   0  0  0  0  0  0  0  0  0  0  0  0
   41.4769    2.5320  -15.3373 N   0  0  0  0  0  0  0  0  0  0  0  0
   42.2295    2.8487  -16.4806 N   0  0  0  0  0  0  0  0  0  0  0  0
   43.2121    3.7677  -14.7824 N   0  0  0  0  0  0  0  0  0  0  0  0
   44.1678    4.0670  -16.8427 O   0  0  0  0  0  0  0  0  0  0  0  0
   42.0173    2.5676  -17.3999 H   0  0  0  0  0  0  0  0  0  0  0  0
   40.8092    2.9298  -10.2677 C   0  0  0  0  0  0  0  0  0  0  0  0
   41.3397    1.7755  -10.8694 C   0  0  0  0  0  0  0  0  0  0  0  0
   41.8120    1.8409  -12.1804 C   0  0  0  0  0  0  0  0  0  0  0  0
   41.6745    3.0432  -12.9019 C   0  0  0  0  0  0  0  0  0  0  0  0
   41.1249    4.1880  -12.2909 C   0  0  0  0  0  0  0  0  0  0  0  0
   40.6603    4.1291  -10.9913 C   0  0  0  0  0  0  0  0  0  0  0  0
   40.3017    2.8716   -9.0208 O   0  0  0  0  0  0  0  0  0  0  0  0
   42.3829    0.7688  -12.7865 O   0  0  0  0  0  0  0  0  0  0  0  0
   39.9487    3.6427   -8.6222 H   0  0  0  0  0  0  0  0  0  0  0  0
   42.6922    0.8388  -13.6682 H   0  0  0  0  0  0  0  0  0  0  0  0
   44.1069    4.5221  -13.9975 C   0  0  0  0  0  0  0  0  0  0  0  0
   43.9537    5.9075  -13.9299 C   0  0  0  0  0  0  0  0  0  0  0  0
   44.8579    6.6632  -13.1849 C   0  0  0  0  0  0  0  0  0  0  0  0
   45.1554    3.8964  -13.3101 C   0  0  0  0  0  0  0  0  0  0  0  0
   45.9085    6.0432  -12.5143 C   0  0  0  0  0  0  0  0  0  0  0  0
   46.0630    4.6609  -12.5873 C   0  0  0  0  0  0  0  0  0  0  0  0
   42.9100    6.4868  -14.5724 F   0  0  0  0  0  0  0  0  0  0  0  0
  4  2  1  0  0  0
  4  3  1  0  0  0
  6  2  2  0  0  0
  2  5  1  0  0  0
  3  1  2  0  0  0
 24 19  1  0  0  0
  5  1  1  0  0  0
  5 18  1  0  0  0
  1 11  1  0  0  0
 19 18  2  0  0  0
 19 20  1  0  0  0
 18 21  1  0  0  0
 11 12  2  0  0  0
 11 10  1  0  0  0
 20 22  2  0  0  0
 15 10  1  0  0  0
 12 13  1  0  0  0
 10  9  2  0  0  0
 21 23  2  0  0  0
 22 23  1  0  0  0
 13  8  2  0  0  0
  9  8  1  0  0  0
  8 14  1  0  0  0
 14 16  1  0  0  0
 15 17  1  0  0  0
  4  7  1  0  0  0
M  END
> <minimizedAffinity>
-7.42761

$$$$
5J8U_6DL_A_301


 24 26  0  0  0  0  0  0  0  0999 V2000
   42.9554    4.2364  -13.4390 C   0  0  0  0  0  0  0  0  0  0  0  0
   41.0937    4.2427  -12.2265 C   0  0  0  0  0  0  0  0  0  0  0  0
   42.2196    5.2132  -13.9115 N   0  0  0  0  0  0  0  0  0  0  0  0
   41.0436    5.2369  -13.1433 N   0  0  0  0  0  0  0  0  0  0  0  0
   42.2617    3.6004  -12.4138 N   0  0  0  0  0  0  0  0  0  0  0  0
   40.2456    3.9544  -11.3852 O   0  0  0  0  0  0  0  0  0  0  0  0
   40.3018    5.8746  -13.2541 H   0  0  0  0  0  0  0  0  0  0  0  0
   46.7568    3.0482  -14.9318 C   0  0  0  0  0  0  0  0  0  0  0  0
   46.6714    4.1050  -14.0089 C   0  0  0  0  0  0  0  0  0  0  0  0
   45.4287    4.4554  -13.4807 C   0  0  0  0  0  0  0  0  0  0  0  0
   44.2735    3.7948  -13.9434 C   0  0  0  0  0  0  0  0  0  0  0  0
   44.3727    2.7483  -14.8821 C   0  0  0  0  0  0  0  0  0  0  0  0
   45.6017    2.3947  -15.4042 C   0  0  0  0  0  0  0  0  0  0  0  0
   47.9411    2.7306  -15.4905 O   0  0  0  0  0  0  0  0  0  0  0  0
   45.3013    5.4316  -12.5461 O   0  0  0  0  0  0  0  0  0  0  0  0
   47.9950    2.0256  -16.1054 H   0  0  0  0  0  0  0  0  0  0  0  0
   44.4550    5.6481  -12.2071 H   0  0  0  0  0  0  0  0  0  0  0  0
   42.6992    2.4733  -11.6898 C   0  0  0  0  0  0  0  0  0  0  0  0
   42.3979    1.1971  -12.1671 C   0  0  0  0  0  0  0  0  0  0  0  0
   42.7958    0.0786  -11.4362 C   0  0  0  0  0  0  0  0  0  0  0  0
   43.4077    2.6263  -10.4908 C   0  0  0  0  0  0  0  0  0  0  0  0
   43.4866    0.2308  -10.2372 C   0  0  0  0  0  0  0  0  0  0  0  0
   43.7817    1.5054   -9.7597 C   0  0  0  0  0  0  0  0  0  0  0  0
   41.7444    1.0730  -13.3483 F   0  0  0  0  0  0  0  0  0  0  0  0
  4  2  1  0  0  0
  4  3  1  0  0  0
  6  2  2  0  0  0
  2  5  1  0  0  0
  3  1  2  0  0  0
 24 19  1  0  0  0
  5  1  1  0  0  0
  5 18  1  0  0  0
  1 11  1  0  0  0
 19 18  2  0  0  0
 19 20  1  0  0  0
 18 21  1  0  0  0
 11 12  2  0  0  0
 11 10  1  0  0  0
 20 22  2  0  0  0
 15 10  1  0  0  0
 12 13  1  0  0  0
 10  9  2  0  0  0
 21 23  2  0  0  0
 22 23  1  0  0  0
 13  8  2  0  0  0
  9  8  1  0  0  0
  8 14  1  0  0  0
 14 16  1  0  0  0
 15 17  1  0  0  0
  4  7  1  0  0  0
M  END
> <minimizedAffinity>
-7.32388

$$$$
5J8U_6DL_A_301


 24 26  0  0  0  0  0  0  0  0999 V2000
   43.3663    4.7731  -13.4650 C   0  0  0  0  0  0  0  0  0  0  0  0
   44.3511    6.6280  -14.1901 C   0  0  0  0  0  0  0  0  0  0  0  0
   42.4254    5.6846  -13.5191 N   0  0  0  0  0  0  0  0  0  0  0  0
   43.0331    6.8605  -13.9900 N   0  0  0  0  0  0  0  0  0  0  0  0
   44.5758    5.3461  -13.8466 N   0  0  0  0  0  0  0  0  0  0  0  0
   45.1999    7.4198  -14.5935 O   0  0  0  0  0  0  0  0  0  0  0  0
   42.5736    7.7166  -14.1490 H   0  0  0  0  0  0  0  0  0  0  0  0
   42.8641    0.7682  -12.1238 C   0  0  0  0  0  0  0  0  0  0  0  0
   42.4804    1.1174  -13.4302 C   0  0  0  0  0  0  0  0  0  0  0  0
   42.6972    2.4186  -13.8839 C   0  0  0  0  0  0  0  0  0  0  0  0
   43.2237    3.3779  -12.9963 C   0  0  0  0  0  0  0  0  0  0  0  0
   43.5880    3.0173  -11.6836 C   0  0  0  0  0  0  0  0  0  0  0  0
   43.3796    1.7287  -11.2316 C   0  0  0  0  0  0  0  0  0  0  0  0
   42.6152   -0.4693  -11.6525 O   0  0  0  0  0  0  0  0  0  0  0  0
   42.3946    2.7902  -15.1540 O   0  0  0  0  0  0  0  0  0  0  0  0
   42.8721   -0.6993  -10.7812 H   0  0  0  0  0  0  0  0  0  0  0  0
   42.5499    3.6708  -15.4341 H   0  0  0  0  0  0  0  0  0  0  0  0
   45.8288    4.7017  -13.8708 C   0  0  0  0  0  0  0  0  0  0  0  0
   46.6904    4.8445  -12.7824 C   0  0  0  0  0  0  0  0  0  0  0  0
   47.9461    4.2399  -12.8162 C   0  0  0  0  0  0  0  0  0  0  0  0
   46.2206    3.9449  -14.9829 C   0  0  0  0  0  0  0  0  0  0  0  0
   48.3414    3.5005  -13.9275 C   0  0  0  0  0  0  0  0  0  0  0  0
   47.4823    3.3635  -15.0151 C   0  0  0  0  0  0  0  0  0  0  0  0
   46.2751    5.5500  -11.7019 F   0  0  0  0  0  0  0  0  0  0  0  0
  4  2  1  0  0  0
  4  3  1  0  0  0
  6  2  2  0  0  0
  2  5  1  0  0  0
  3  1  2  0  0  0
 24 19  1  0  0  0
  5  1  1  0  0  0
  5 18  1  0  0  0
  1 11  1  0  0  0
 19 18  2  0  0  0
 19 20  1  0  0  0
 18 21  1  0  0  0
 11 12  2  0  0  0
 11 10  1  0  0  0
 20 22  2  0  0  0
 15 10  1  0  0  0
 12 13  1  0  0  0
 10  9  2  0  0  0
 21 23  2  0  0  0
 22 23  1  0  0  0
 13  8  2  0  0  0
  9  8  1  0  0  0
  8 14  1  0  0  0
 14 16  1  0  0  0
 15 17  1  0  0  0
  4  7  1  0  0  0
M  END
> <minimizedAffinity>
-7.31152

$$$$
5J8U_6DL_A_301


 24 26  0  0  0  0  0  0  0  0999 V2000
   42.3622    2.7920  -10.0711 C   0  0  0  0  0  0  0  0  0  0  0  0
   40.9373    3.7173  -11.5026 C   0  0  0  0  0  0  0  0  0  0  0  0
   41.3135    3.1380   -9.3646 N   0  0  0  0  0  0  0  0  0  0  0  0
   40.3977    3.7128  -10.2616 N   0  0  0  0  0  0  0  0  0  0  0  0
   42.1629    3.1715  -11.3951 N   0  0  0  0  0  0  0  0  0  0  0  0
   40.4320    4.1428  -12.5389 O   0  0  0  0  0  0  0  0  0  0  0  0
   39.5061    4.0571  -10.0252 H   0  0  0  0  0  0  0  0  0  0  0  0
   45.9010    0.9934   -8.5438 C   0  0  0  0  0  0  0  0  0  0  0  0
   44.8196    0.1825   -8.9297 C   0  0  0  0  0  0  0  0  0  0  0  0
   43.6822    0.7730   -9.4808 C   0  0  0  0  0  0  0  0  0  0  0  0
   43.6087    2.1774   -9.5657 C   0  0  0  0  0  0  0  0  0  0  0  0
   44.6943    2.9787   -9.1590 C   0  0  0  0  0  0  0  0  0  0  0  0
   45.8246    2.3980   -8.6172 C   0  0  0  0  0  0  0  0  0  0  0  0
   46.9858    0.4445   -7.9627 O   0  0  0  0  0  0  0  0  0  0  0  0
   42.6345    0.0294   -9.9191 O   0  0  0  0  0  0  0  0  0  0  0  0
   47.7052    0.9875   -7.7065 H   0  0  0  0  0  0  0  0  0  0  0  0
   41.8818    0.4505  -10.2853 H   0  0  0  0  0  0  0  0  0  0  0  0
   43.0833    3.0163  -12.4509 C   0  0  0  0  0  0  0  0  0  0  0  0
   43.0665    1.8410  -13.2031 C   0  0  0  0  0  0  0  0  0  0  0  0
   43.9986    1.6659  -14.2249 C   0  0  0  0  0  0  0  0  0  0  0  0
   44.0232    4.0169  -12.7312 C   0  0  0  0  0  0  0  0  0  0  0  0
   44.9421    2.6536  -14.4936 C   0  0  0  0  0  0  0  0  0  0  0  0
   44.9608    3.8236  -13.7383 C   0  0  0  0  0  0  0  0  0  0  0  0
   42.1242    0.9031  -12.9383 F   0  0  0  0  0  0  0  0  0  0  0  0
  4  2  1  0  0  0
  4  3  1  0  0  0
  6  2  2  0  0  0
  2  5  1  0  0  0
  3  1  2  0  0  0
 24 19  1  0  0  0
  5  1  1  0  0  0
  5 18  1  0  0  0
  1 11  1  0  0  0
 19 18  2  0  0  0
 19 20  1  0  0  0
 18 21  1  0  0  0
 11 12  2  0  0  0
 11 10  1  0  0  0
 20 22  2  0  0  0
 15 10  1  0  0  0
 12 13  1  0  0  0
 10  9  2  0  0  0
 21 23  2  0  0  0
 22 23  1  0  0  0
 13  8  2  0  0  0
  9  8  1  0  0  0
  8 14  1  0  0  0
 14 16  1  0  0  0
 15 17  1  0  0  0
  4  7  1  0  0  0
M  END
> <minimizedAffinity>
-7.27738

$$$$
5J8U_6DL_A_301


 24 26  0  0  0  0  0  0  0  0999 V2000
   42.8982    4.3010  -13.5600 C   0  0  0  0  0  0  0  0  0  0  0  0
   41.0472    4.2586  -12.3320 C   0  0  0  0  0  0  0  0  0  0  0  0
   42.1367    5.2637  -14.0205 N   0  0  0  0  0  0  0  0  0  0  0  0
   40.9670    5.2566  -13.2424 N   0  0  0  0  0  0  0  0  0  0  0  0
   42.2277    3.6438  -12.5328 N   0  0  0  0  0  0  0  0  0  0  0  0
   40.2129    3.9464  -11.4853 O   0  0  0  0  0  0  0  0  0  0  0  0
   40.2101    5.8781  -13.3433 H   0  0  0  0  0  0  0  0  0  0  0  0
   46.6877    3.0383  -15.0216 C   0  0  0  0  0  0  0  0  0  0  0  0
   45.5133    2.5310  -15.6042 C   0  0  0  0  0  0  0  0  0  0  0  0
   44.2734    2.9890  -15.1583 C   0  0  0  0  0  0  0  0  0  0  0  0
   44.2215    3.8921  -14.0781 C   0  0  0  0  0  0  0  0  0  0  0  0
   45.4072    4.3792  -13.4924 C   0  0  0  0  0  0  0  0  0  0  0  0
   46.6373    3.9320  -13.9339 C   0  0  0  0  0  0  0  0  0  0  0  0
   47.8914    2.5690  -15.4045 O   0  0  0  0  0  0  0  0  0  0  0  0
   43.1132    2.5710  -15.7256 O   0  0  0  0  0  0  0  0  0  0  0  0
   48.6725    2.9091  -15.0143 H   0  0  0  0  0  0  0  0  0  0  0  0
   42.2932    2.8939  -15.4075 H   0  0  0  0  0  0  0  0  0  0  0  0
   42.6964    2.5227  -11.8192 C   0  0  0  0  0  0  0  0  0  0  0  0
   42.4040    1.2425  -12.2913 C   0  0  0  0  0  0  0  0  0  0  0  0
   42.8333    0.1294  -11.5700 C   0  0  0  0  0  0  0  0  0  0  0  0
   43.4274    2.6852  -10.6349 C   0  0  0  0  0  0  0  0  0  0  0  0
   43.5465    0.2909  -10.3854 C   0  0  0  0  0  0  0  0  0  0  0  0
   43.8329    1.5693   -9.9129 C   0  0  0  0  0  0  0  0  0  0  0  0
   41.7280    1.1097  -13.4588 F   0  0  0  0  0  0  0  0  0  0  0  0
  4  2  1  0  0  0
  4  3  1  0  0  0
  6  2  2  0  0  0
  2  5  1  0  0  0
  3  1  2  0  0  0
 24 19  1  0  0  0
  5  1  1  0  0  0
  5 18  1  0  0  0
  1 11  1  0  0  0
 19 18  2  0  0  0
 19 20  1  0  0  0
 18 21  1  0  0  0
 11 12  2  0  0  0
 11 10  1  0  0  0
 20 22  2  0  0  0
 15 10  1  0  0  0
 12 13  1  0  0  0
 10  9  2  0  0  0
 21 23  2  0  0  0
 22 23  1  0  0  0
 13  8  2  0  0  0
  9  8  1  0  0  0
  8 14  1  0  0  0
 14 16  1  0  0  0
 15 17  1  0  0  0
  4  7  1  0  0  0
M  END
> <minimizedAffinity>
-7.24066

$$$$
5J8U_6DL_A_301


 24 26  0  0  0  0  0  0  0  0999 V2000
   43.7341    2.4932  -13.9176 C   0  0  0  0  0  0  0  0  0  0  0  0
   45.3694    2.5896  -15.4185 C   0  0  0  0  0  0  0  0  0  0  0  0
   43.8584    1.2786  -14.3953 N   0  0  0  0  0  0  0  0  0  0  0  0
   44.9001    1.3229  -15.3369 N   0  0  0  0  0  0  0  0  0  0  0  0
   44.6407    3.3295  -14.5622 N   0  0  0  0  0  0  0  0  0  0  0  0
   46.2744    3.0097  -16.1359 O   0  0  0  0  0  0  0  0  0  0  0  0
   45.2351    0.5553  -15.8545 H   0  0  0  0  0  0  0  0  0  0  0  0
   40.8602    3.7412  -11.0413 C   0  0  0  0  0  0  0  0  0  0  0  0
   41.9068    2.8868  -10.6532 C   0  0  0  0  0  0  0  0  0  0  0  0
   42.8777    2.5239  -11.5868 C   0  0  0  0  0  0  0  0  0  0  0  0
   42.7452    2.9574  -12.9209 C   0  0  0  0  0  0  0  0  0  0  0  0
   41.6809    3.8000  -13.2994 C   0  0  0  0  0  0  0  0  0  0  0  0
   40.7198    4.1657  -12.3770 C   0  0  0  0  0  0  0  0  0  0  0  0
   39.8861    4.0601  -10.1664 O   0  0  0  0  0  0  0  0  0  0  0  0
   43.9372    1.7462  -11.2475 O   0  0  0  0  0  0  0  0  0  0  0  0
   39.1897    4.6298  -10.4279 H   0  0  0  0  0  0  0  0  0  0  0  0
   44.5758    1.5165  -11.8936 H   0  0  0  0  0  0  0  0  0  0  0  0
   44.7785    4.7173  -14.3604 C   0  0  0  0  0  0  0  0  0  0  0  0
   45.4665    5.1782  -13.2372 C   0  0  0  0  0  0  0  0  0  0  0  0
   45.5743    6.5499  -13.0125 C   0  0  0  0  0  0  0  0  0  0  0  0
   44.2121    5.6291  -15.2610 C   0  0  0  0  0  0  0  0  0  0  0  0
   44.9986    7.4556  -13.8992 C   0  0  0  0  0  0  0  0  0  0  0  0
   44.3077    6.9937  -15.0168 C   0  0  0  0  0  0  0  0  0  0  0  0
   46.0383    4.2783  -12.4000 F   0  0  0  0  0  0  0  0  0  0  0  0
  4  2  1  0  0  0
  4  3  1  0  0  0
  6  2  2  0  0  0
  2  5  1  0  0  0
  3  1  2  0  0  0
 24 19  1  0  0  0
  5  1  1  0  0  0
  5 18  1  0  0  0
  1 11  1  0  0  0
 19 18  2  0  0  0
 19 20  1  0  0  0
 18 21  1  0  0  0
 11 12  2  0  0  0
 11 10  1  0  0  0
 20 22  2  0  0  0
 15 10  1  0  0  0
 12 13  1  0  0  0
 10  9  2  0  0  0
 21 23  2  0  0  0
 22 23  1  0  0  0
 13  8  2  0  0  0
  9  8  1  0  0  0
  8 14  1  0  0  0
 14 16  1  0  0  0
 15 17  1  0  0  0
  4  7  1  0  0  0
M  END
> <minimizedAffinity>
-7.21333

$$$$
