4KM0_CP6_A_201


 21 22  0  0  0  0  0  0  0  0999 V2000
    2.3483   -1.7905    0.4385 N   0  0  0  0  0  0  0  0  0  0  0  0
    3.0317   -2.1805   -0.6684 C   0  0  0  0  0  0  0  0  0  0  0  0
    1.7438   -2.7867    1.1511 C   0  0  0  0  0  0  0  0  0  0  0  0
    1.8097   -4.1693    0.8262 C   0  0  0  0  0  0  0  0  0  0  0  0
    2.4919   -4.4768   -0.3206 C   0  0  0  0  0  0  0  0  0  0  0  0
    3.0188   -3.4871   -1.0947 N   0  0  0  0  0  0  0  0  0  0  0  0
    1.0520   -2.3799    2.2609 N   0  0  0  0  0  0  0  0  0  0  0  0
    3.6583   -1.3238   -1.3919 N   0  0  0  0  0  0  0  0  0  0  0  0
    1.0048   -1.4231    2.4881 H   0  0  0  0  0  0  0  0  0  0  0  0
    0.6019   -3.0441    2.8313 H   0  0  0  0  0  0  0  0  0  0  0  0
    3.6896   -0.3783   -1.1192 H   0  0  0  0  0  0  0  0  0  0  0  0
    4.1071   -1.6126   -2.2192 H   0  0  0  0  0  0  0  0  0  0  0  0
    1.2187   -5.1708    1.7118 C   0  0  0  0  0  0  0  0  0  0  0  0
   -0.1759   -5.3647    1.8232 C   0  0  0  0  0  0  0  0  0  0  0  0
   -0.7086   -6.3046    2.7483 C   0  0  0  0  0  0  0  0  0  0  0  0
    0.2332   -7.0060    3.5660 C   0  0  0  0  0  0  0  0  0  0  0  0
    1.6362   -6.8072    3.5431 C   0  0  0  0  0  0  0  0  0  0  0  0
    2.0771   -5.9093    2.5581 C   0  0  0  0  0  0  0  0  0  0  0  0
   -0.4271   -8.1743    4.6797 Cl  0  0  0  0  0  0  0  0  0  0  0  0
    2.6417   -5.8779   -0.9226 C   0  0  0  0  0  0  0  0  0  0  0  0
    4.0943   -6.3760   -0.7236 C   0  0  0  0  0  0  0  0  0  0  0  0
  1  2  1  0  0  0
  1  3  2  0  0  0
  2  6  2  0  0  0
  2  8  1  0  0  0
  3  4  1  0  0  0
  3  7  1  0  0  0
  4  5  2  0  0  0
  4 13  1  0  0  0
  5  6  1  0  0  0
  5 20  1  0  0  0
 13 14  1  0  0  0
 13 18  2  0  0  0
 14 15  2  0  0  0
 15 16  1  0  0  0
 16 17  2  0  0  0
 16 19  1  0  0  0
 17 18  1  0  0  0
 20 21  1  0  0  0
  7  9  1  0  0  0
  7 10  1  0  0  0
  8 11  1  0  0  0
  8 12  1  0  0  0
M  END
> <minimizedAffinity>
-7.74758

$$$$
4KM0_CP6_A_201


 21 22  0  0  0  0  0  0  0  0999 V2000
    2.2109   -2.1021    0.4751 N   0  0  0  0  0  0  0  0  0  0  0  0
    2.5819   -2.5166   -0.7638 C   0  0  0  0  0  0  0  0  0  0  0  0
    1.0398   -2.6175    0.9533 C   0  0  0  0  0  0  0  0  0  0  0  0
    0.2256   -3.5554    0.2614 C   0  0  0  0  0  0  0  0  0  0  0  0
    0.6530   -3.8993   -0.9932 C   0  0  0  0  0  0  0  0  0  0  0  0
    1.7672   -3.3216   -1.5235 N   0  0  0  0  0  0  0  0  0  0  0  0
    0.6730   -2.1863    2.2004 N   0  0  0  0  0  0  0  0  0  0  0  0
    3.6804   -2.1119   -1.2926 N   0  0  0  0  0  0  0  0  0  0  0  0
    1.2350   -1.5368    2.6817 H   0  0  0  0  0  0  0  0  0  0  0  0
   -0.1526   -2.5257    2.6156 H   0  0  0  0  0  0  0  0  0  0  0  0
    4.2900   -1.5337   -0.7794 H   0  0  0  0  0  0  0  0  0  0  0  0
    3.9126   -2.3798   -2.2110 H   0  0  0  0  0  0  0  0  0  0  0  0
   -0.9555   -4.1307    0.9022 C   0  0  0  0  0  0  0  0  0  0  0  0
   -2.2193   -3.5002    0.8824 C   0  0  0  0  0  0  0  0  0  0  0  0
   -3.3248   -4.0637    1.5774 C   0  0  0  0  0  0  0  0  0  0  0  0
   -3.0775   -5.2680    2.3096 C   0  0  0  0  0  0  0  0  0  0  0  0
   -1.8186   -5.9097    2.4175 C   0  0  0  0  0  0  0  0  0  0  0  0
   -0.8014   -5.3205    1.6499 C   0  0  0  0  0  0  0  0  0  0  0  0
   -4.4445   -5.9653    3.1380 Cl  0  0  0  0  0  0  0  0  0  0  0  0
   -0.0831   -4.8284   -1.9644 C   0  0  0  0  0  0  0  0  0  0  0  0
   -1.2202   -4.0480   -2.6684 C   0  0  0  0  0  0  0  0  0  0  0  0
  1  2  1  0  0  0
  1  3  2  0  0  0
  2  6  2  0  0  0
  2  8  1  0  0  0
  3  4  1  0  0  0
  3  7  1  0  0  0
  4  5  2  0  0  0
  4 13  1  0  0  0
  5  6  1  0  0  0
  5 20  1  0  0  0
 13 14  1  0  0  0
 13 18  2  0  0  0
 14 15  2  0  0  0
 15 16  1  0  0  0
 16 17  2  0  0  0
 16 19  1  0  0  0
 17 18  1  0  0  0
 20 21  1  0  0  0
  7  9  1  0  0  0
  7 10  1  0  0  0
  8 11  1  0  0  0
  8 12  1  0  0  0
M  END
> <minimizedAffinity>
-7.40926

$$$$
4KM0_CP6_A_201


 21 22  0  0  0  0  0  0  0  0999 V2000
    2.5430   -2.0239    0.6206 N   0  0  0  0  0  0  0  0  0  0  0  0
    2.8379   -2.3121   -0.6734 C   0  0  0  0  0  0  0  0  0  0  0  0
    1.3548   -2.5103    1.0867 C   0  0  0  0  0  0  0  0  0  0  0  0
    0.4492   -3.3001    0.3268 C   0  0  0  0  0  0  0  0  0  0  0  0
    0.8050   -3.5205   -0.9770 C   0  0  0  0  0  0  0  0  0  0  0  0
    1.9393   -2.9622   -1.4850 N   0  0  0  0  0  0  0  0  0  0  0  0
    1.0656   -2.2068    2.3906 N   0  0  0  0  0  0  0  0  0  0  0  0
    3.9438   -1.9242   -1.1993 N   0  0  0  0  0  0  0  0  0  0  0  0
    1.6910   -1.6600    2.9190 H   0  0  0  0  0  0  0  0  0  0  0  0
    0.2325   -2.5354    2.7994 H   0  0  0  0  0  0  0  0  0  0  0  0
    4.6124   -1.4552   -0.6497 H   0  0  0  0  0  0  0  0  0  0  0  0
    4.1227   -2.0959   -2.1521 H   0  0  0  0  0  0  0  0  0  0  0  0
   -0.7476   -3.8647    0.9477 C   0  0  0  0  0  0  0  0  0  0  0  0
   -0.7669   -5.1436    1.5469 C   0  0  0  0  0  0  0  0  0  0  0  0
   -1.9719   -5.6801    2.0787 C   0  0  0  0  0  0  0  0  0  0  0  0
   -3.1477   -4.8756    1.9450 C   0  0  0  0  0  0  0  0  0  0  0  0
   -3.2014   -3.6158    1.2984 C   0  0  0  0  0  0  0  0  0  0  0  0
   -1.9564   -3.1369    0.8605 C   0  0  0  0  0  0  0  0  0  0  0  0
   -4.6154   -5.5305    2.6221 Cl  0  0  0  0  0  0  0  0  0  0  0  0
   -0.0320   -4.2737   -2.0163 C   0  0  0  0  0  0  0  0  0  0  0  0
    0.8108   -5.4179   -2.6314 C   0  0  0  0  0  0  0  0  0  0  0  0
  1  2  1  0  0  0
  1  3  2  0  0  0
  2  6  2  0  0  0
  2  8  1  0  0  0
  3  4  1  0  0  0
  3  7  1  0  0  0
  4  5  2  0  0  0
  4 13  1  0  0  0
  5  6  1  0  0  0
  5 20  1  0  0  0
 13 14  1  0  0  0
 13 18  2  0  0  0
 14 15  2  0  0  0
 15 16  1  0  0  0
 16 17  2  0  0  0
 16 19  1  0  0  0
 17 18  1  0  0  0
 20 21  1  0  0  0
  7  9  1  0  0  0
  7 10  1  0  0  0
  8 11  1  0  0  0
  8 12  1  0  0  0
M  END
> <minimizedAffinity>
-7.35191

$$$$
4KM0_CP6_A_201


 21 22  0  0  0  0  0  0  0  0999 V2000
   -1.6375   -4.2296    0.2908 N   0  0  0  0  0  0  0  0  0  0  0  0
   -1.4963   -2.9379    0.6860 C   0  0  0  0  0  0  0  0  0  0  0  0
   -0.4813   -4.9442    0.1558 C   0  0  0  0  0  0  0  0  0  0  0  0
    0.8198   -4.4375    0.4236 C   0  0  0  0  0  0  0  0  0  0  0  0
    0.8790   -3.1189    0.7880 C   0  0  0  0  0  0  0  0  0  0  0  0
   -0.2556   -2.3658    0.8341 N   0  0  0  0  0  0  0  0  0  0  0  0
   -0.6364   -6.2430   -0.2502 N   0  0  0  0  0  0  0  0  0  0  0  0
   -2.5237   -2.1888    0.8688 N   0  0  0  0  0  0  0  0  0  0  0  0
   -1.5362   -6.5964   -0.4364 H   0  0  0  0  0  0  0  0  0  0  0  0
    0.1519   -6.8232   -0.3559 H   0  0  0  0  0  0  0  0  0  0  0  0
   -3.4292   -2.5628    0.7716 H   0  0  0  0  0  0  0  0  0  0  0  0
   -2.4056   -1.2406    1.1061 H   0  0  0  0  0  0  0  0  0  0  0  0
    1.9883   -5.3128    0.3532 C   0  0  0  0  0  0  0  0  0  0  0  0
    2.8049   -5.4067   -0.7955 C   0  0  0  0  0  0  0  0  0  0  0  0
    3.8920   -6.3224   -0.8429 C   0  0  0  0  0  0  0  0  0  0  0  0
    4.0865   -7.1494    0.3086 C   0  0  0  0  0  0  0  0  0  0  0  0
    3.2626   -7.1441    1.4616 C   0  0  0  0  0  0  0  0  0  0  0  0
    2.2544   -6.1672    1.4476 C   0  0  0  0  0  0  0  0  0  0  0  0
    5.4368   -8.2515    0.2516 Cl  0  0  0  0  0  0  0  0  0  0  0  0
    2.1604   -2.3227    1.0563 C   0  0  0  0  0  0  0  0  0  0  0  0
    2.7993   -1.8982   -0.2888 C   0  0  0  0  0  0  0  0  0  0  0  0
  1  2  1  0  0  0
  1  3  2  0  0  0
  2  6  2  0  0  0
  2  8  1  0  0  0
  3  4  1  0  0  0
  3  7  1  0  0  0
  4  5  2  0  0  0
  4 13  1  0  0  0
  5  6  1  0  0  0
  5 20  1  0  0  0
 13 14  1  0  0  0
 13 18  2  0  0  0
 14 15  2  0  0  0
 15 16  1  0  0  0
 16 17  2  0  0  0
 16 19  1  0  0  0
 17 18  1  0  0  0
 20 21  1  0  0  0
  7  9  1  0  0  0
  7 10  1  0  0  0
  8 11  1  0  0  0
  8 12  1  0  0  0
M  END
> <minimizedAffinity>
-7.09925

$$$$
4KM0_CP6_A_201


 21 22  0  0  0  0  0  0  0  0999 V2000
    3.2842   -3.9308   -0.6416 N   0  0  0  0  0  0  0  0  0  0  0  0
    2.7047   -2.7190   -0.8425 C   0  0  0  0  0  0  0  0  0  0  0  0
    2.5507   -4.8340    0.0739 C   0  0  0  0  0  0  0  0  0  0  0  0
    1.2441   -4.5956    0.5813 C   0  0  0  0  0  0  0  0  0  0  0  0
    0.7433   -3.3401    0.3625 C   0  0  0  0  0  0  0  0  0  0  0  0
    1.4999   -2.3967   -0.2652 N   0  0  0  0  0  0  0  0  0  0  0  0
    3.1487   -6.0495    0.2758 N   0  0  0  0  0  0  0  0  0  0  0  0
    3.3004   -1.8091   -1.5262 N   0  0  0  0  0  0  0  0  0  0  0  0
    4.0534   -6.2172   -0.0744 H   0  0  0  0  0  0  0  0  0  0  0  0
    2.6740   -6.7554    0.7713 H   0  0  0  0  0  0  0  0  0  0  0  0
    4.1653   -2.0024   -1.9548 H   0  0  0  0  0  0  0  0  0  0  0  0
    2.8919   -0.9184   -1.6215 H   0  0  0  0  0  0  0  0  0  0  0  0
    0.4965   -5.6633    1.2429 C   0  0  0  0  0  0  0  0  0  0  0  0
   -0.3696   -6.5348    0.5462 C   0  0  0  0  0  0  0  0  0  0  0  0
   -1.1289   -7.5159    1.2418 C   0  0  0  0  0  0  0  0  0  0  0  0
   -0.9894   -7.5462    2.6656 C   0  0  0  0  0  0  0  0  0  0  0  0
   -0.1862   -6.6573    3.4227 C   0  0  0  0  0  0  0  0  0  0  0  0
    0.5747   -5.7651    2.6507 C   0  0  0  0  0  0  0  0  0  0  0  0
   -1.9047   -8.7685    3.5077 Cl  0  0  0  0  0  0  0  0  0  0  0  0
   -0.6034   -2.8143    0.8705 C   0  0  0  0  0  0  0  0  0  0  0  0
   -1.5597   -2.5931   -0.3271 C   0  0  0  0  0  0  0  0  0  0  0  0
  1  2  1  0  0  0
  1  3  2  0  0  0
  2  6  2  0  0  0
  2  8  1  0  0  0
  3  4  1  0  0  0
  3  7  1  0  0  0
  4  5  2  0  0  0
  4 13  1  0  0  0
  5  6  1  0  0  0
  5 20  1  0  0  0
 13 14  1  0  0  0
 13 18  2  0  0  0
 14 15  2  0  0  0
 15 16  1  0  0  0
 16 17  2  0  0  0
 16 19  1  0  0  0
 17 18  1  0  0  0
 20 21  1  0  0  0
  7  9  1  0  0  0
  7 10  1  0  0  0
  8 11  1  0  0  0
  8 12  1  0  0  0
M  END
> <minimizedAffinity>
-6.63625

$$$$
4KM0_CP6_A_201


 21 22  0  0  0  0  0  0  0  0999 V2000
   -0.4290   -2.3069    1.0346 N   0  0  0  0  0  0  0  0  0  0  0  0
   -1.6332   -2.8538    0.7258 C   0  0  0  0  0  0  0  0  0  0  0  0
    0.6459   -3.1468    0.9644 C   0  0  0  0  0  0  0  0  0  0  0  0
    0.5826   -4.5119    0.5721 C   0  0  0  0  0  0  0  0  0  0  0  0
   -0.6710   -4.9947    0.3064 C   0  0  0  0  0  0  0  0  0  0  0  0
   -1.7640   -4.1968    0.4646 N   0  0  0  0  0  0  0  0  0  0  0  0
    1.8532   -2.5853    1.2851 N   0  0  0  0  0  0  0  0  0  0  0  0
   -2.7022   -2.1416    0.7349 N   0  0  0  0  0  0  0  0  0  0  0  0
    1.8998   -1.6403    1.5571 H   0  0  0  0  0  0  0  0  0  0  0  0
    2.6744   -3.1267    1.2436 H   0  0  0  0  0  0  0  0  0  0  0  0
   -2.6486   -1.1757    0.9181 H   0  0  0  0  0  0  0  0  0  0  0  0
   -3.5750   -2.5615    0.5586 H   0  0  0  0  0  0  0  0  0  0  0  0
    1.8040   -5.3010    0.4240 C   0  0  0  0  0  0  0  0  0  0  0  0
    2.5755   -5.3005   -0.7591 C   0  0  0  0  0  0  0  0  0  0  0  0
    3.7196   -6.1363   -0.8824 C   0  0  0  0  0  0  0  0  0  0  0  0
    4.0187   -6.9847    0.2305 C   0  0  0  0  0  0  0  0  0  0  0  0
    3.2461   -7.0741    1.4151 C   0  0  0  0  0  0  0  0  0  0  0  0
    2.1739   -6.1698    1.4760 C   0  0  0  0  0  0  0  0  0  0  0  0
    5.4375   -7.9876    0.0805 Cl  0  0  0  0  0  0  0  0  0  0  0  0
   -1.0112   -6.4428   -0.0615 C   0  0  0  0  0  0  0  0  0  0  0  0
   -1.4306   -7.2173    1.2120 C   0  0  0  0  0  0  0  0  0  0  0  0
  1  2  1  0  0  0
  1  3  2  0  0  0
  2  6  2  0  0  0
  2  8  1  0  0  0
  3  4  1  0  0  0
  3  7  1  0  0  0
  4  5  2  0  0  0
  4 13  1  0  0  0
  5  6  1  0  0  0
  5 20  1  0  0  0
 13 14  1  0  0  0
 13 18  2  0  0  0
 14 15  2  0  0  0
 15 16  1  0  0  0
 16 17  2  0  0  0
 16 19  1  0  0  0
 17 18  1  0  0  0
 20 21  1  0  0  0
  7  9  1  0  0  0
  7 10  1  0  0  0
  8 11  1  0  0  0
  8 12  1  0  0  0
M  END
> <minimizedAffinity>
-6.54332

$$$$
4KM0_CP6_A_201


 21 22  0  0  0  0  0  0  0  0999 V2000
   -3.5200   -3.9666    1.4798 N   0  0  0  0  0  0  0  0  0  0  0  0
   -3.4687   -5.2075    2.0295 C   0  0  0  0  0  0  0  0  0  0  0  0
   -2.3267   -3.4435    1.0699 C   0  0  0  0  0  0  0  0  0  0  0  0
   -1.0759   -4.1137    1.1575 C   0  0  0  0  0  0  0  0  0  0  0  0
   -1.1048   -5.3474    1.7511 C   0  0  0  0  0  0  0  0  0  0  0  0
   -2.2708   -5.8431    2.2523 N   0  0  0  0  0  0  0  0  0  0  0  0
   -2.3907   -2.1890    0.5240 N   0  0  0  0  0  0  0  0  0  0  0  0
   -4.5394   -5.7991    2.4217 N   0  0  0  0  0  0  0  0  0  0  0  0
   -3.2555   -1.7227    0.4621 H   0  0  0  0  0  0  0  0  0  0  0  0
   -1.5719   -1.7536    0.1935 H   0  0  0  0  0  0  0  0  0  0  0  0
   -5.4164   -5.3750    2.2796 H   0  0  0  0  0  0  0  0  0  0  0  0
   -4.4828   -6.6766    2.8645 H   0  0  0  0  0  0  0  0  0  0  0  0
    0.1312   -3.5134    0.5927 C   0  0  0  0  0  0  0  0  0  0  0  0
    0.5888   -3.8003   -0.7124 C   0  0  0  0  0  0  0  0  0  0  0  0
    1.8057   -3.2450   -1.1956 C   0  0  0  0  0  0  0  0  0  0  0  0
    2.5407   -2.4191   -0.2871 C   0  0  0  0  0  0  0  0  0  0  0  0
    2.1639   -2.1483    1.0519 C   0  0  0  0  0  0  0  0  0  0  0  0
    0.9204   -2.6844    1.4225 C   0  0  0  0  0  0  0  0  0  0  0  0
    4.0188   -1.7224   -0.8964 Cl  0  0  0  0  0  0  0  0  0  0  0  0
    0.1138   -6.2335    2.0298 C   0  0  0  0  0  0  0  0  0  0  0  0
    0.7668   -5.8122    3.3691 C   0  0  0  0  0  0  0  0  0  0  0  0
  1  2  1  0  0  0
  1  3  2  0  0  0
  2  6  2  0  0  0
  2  8  1  0  0  0
  3  4  1  0  0  0
  3  7  1  0  0  0
  4  5  2  0  0  0
  4 13  1  0  0  0
  5  6  1  0  0  0
  5 20  1  0  0  0
 13 14  1  0  0  0
 13 18  2  0  0  0
 14 15  2  0  0  0
 15 16  1  0  0  0
 16 17  2  0  0  0
 16 19  1  0  0  0
 17 18  1  0  0  0
 20 21  1  0  0  0
  7  9  1  0  0  0
  7 10  1  0  0  0
  8 11  1  0  0  0
  8 12  1  0  0  0
M  END
> <minimizedAffinity>
-6.48714

$$$$
4KM0_CP6_A_201


 21 22  0  0  0  0  0  0  0  0999 V2000
   -0.4679   -4.5090   -2.9602 N   0  0  0  0  0  0  0  0  0  0  0  0
   -1.2244   -3.9270   -1.9940 C   0  0  0  0  0  0  0  0  0  0  0  0
    0.6232   -5.2072   -2.5271 C   0  0  0  0  0  0  0  0  0  0  0  0
    0.9862   -5.3778   -1.1631 C   0  0  0  0  0  0  0  0  0  0  0  0
    0.1901   -4.7351   -0.2530 C   0  0  0  0  0  0  0  0  0  0  0  0
   -0.8454   -3.9557   -0.6733 N   0  0  0  0  0  0  0  0  0  0  0  0
    1.3819   -5.7832   -3.5112 N   0  0  0  0  0  0  0  0  0  0  0  0
   -2.2870   -3.2709   -2.2950 N   0  0  0  0  0  0  0  0  0  0  0  0
    1.1328   -5.6666   -4.4565 H   0  0  0  0  0  0  0  0  0  0  0  0
    2.1763   -6.3137   -3.2733 H   0  0  0  0  0  0  0  0  0  0  0  0
   -2.5902   -3.2274   -3.2306 H   0  0  0  0  0  0  0  0  0  0  0  0
   -2.7981   -2.8115   -1.5901 H   0  0  0  0  0  0  0  0  0  0  0  0
    2.1124   -6.2334   -0.7942 C   0  0  0  0  0  0  0  0  0  0  0  0
    3.4539   -5.7936   -0.8410 C   0  0  0  0  0  0  0  0  0  0  0  0
    4.5222   -6.6822   -0.5381 C   0  0  0  0  0  0  0  0  0  0  0  0
    4.1657   -8.0309   -0.2195 C   0  0  0  0  0  0  0  0  0  0  0  0
    2.8447   -8.5440   -0.2188 C   0  0  0  0  0  0  0  0  0  0  0  0
    1.8511   -7.5837   -0.4669 C   0  0  0  0  0  0  0  0  0  0  0  0
    5.4802   -9.1069    0.1750 Cl  0  0  0  0  0  0  0  0  0  0  0  0
    0.4126   -4.7022    1.2627 C   0  0  0  0  0  0  0  0  0  0  0  0
    1.3610   -3.5325    1.6231 C   0  0  0  0  0  0  0  0  0  0  0  0
  1  2  1  0  0  0
  1  3  2  0  0  0
  2  6  2  0  0  0
  2  8  1  0  0  0
  3  4  1  0  0  0
  3  7  1  0  0  0
  4  5  2  0  0  0
  4 13  1  0  0  0
  5  6  1  0  0  0
  5 20  1  0  0  0
 13 14  1  0  0  0
 13 18  2  0  0  0
 14 15  2  0  0  0
 15 16  1  0  0  0
 16 17  2  0  0  0
 16 19  1  0  0  0
 17 18  1  0  0  0
 20 21  1  0  0  0
  7  9  1  0  0  0
  7 10  1  0  0  0
  8 11  1  0  0  0
  8 12  1  0  0  0
M  END
> <minimizedAffinity>
-6.46161

$$$$
4KM0_CP6_A_201


 21 22  0  0  0  0  0  0  0  0999 V2000
    0.0298   -5.0703   -4.0947 N   0  0  0  0  0  0  0  0  0  0  0  0
    1.1943   -5.6398   -3.6896 C   0  0  0  0  0  0  0  0  0  0  0  0
   -0.8284   -4.6909   -3.1021 C   0  0  0  0  0  0  0  0  0  0  0  0
   -0.5689   -4.8283   -1.7110 C   0  0  0  0  0  0  0  0  0  0  0  0
    0.6129   -5.4389   -1.3860 C   0  0  0  0  0  0  0  0  0  0  0  0
    1.4362   -5.9101   -2.3640 N   0  0  0  0  0  0  0  0  0  0  0  0
   -2.0021   -4.1247   -3.5236 N   0  0  0  0  0  0  0  0  0  0  0  0
    2.0806   -6.0064   -4.5440 N   0  0  0  0  0  0  0  0  0  0  0  0
   -2.1843   -4.0284   -4.4862 H   0  0  0  0  0  0  0  0  0  0  0  0
   -2.6636   -3.8141   -2.8638 H   0  0  0  0  0  0  0  0  0  0  0  0
    1.9428   -5.8302   -5.5028 H   0  0  0  0  0  0  0  0  0  0  0  0
    2.8978   -6.4638   -4.2401 H   0  0  0  0  0  0  0  0  0  0  0  0
   -1.5042   -4.2935   -0.7232 C   0  0  0  0  0  0  0  0  0  0  0  0
   -1.4261   -2.9705   -0.2347 C   0  0  0  0  0  0  0  0  0  0  0  0
   -2.3160   -2.5142    0.7765 C   0  0  0  0  0  0  0  0  0  0  0  0
   -3.2568   -3.4665    1.2823 C   0  0  0  0  0  0  0  0  0  0  0  0
   -3.3392   -4.8218    0.8766 C   0  0  0  0  0  0  0  0  0  0  0  0
   -2.4670   -5.1671   -0.1679 C   0  0  0  0  0  0  0  0  0  0  0  0
   -4.3604   -2.8914    2.5039 Cl  0  0  0  0  0  0  0  0  0  0  0  0
    1.0870   -5.7695    0.0331 C   0  0  0  0  0  0  0  0  0  0  0  0
    2.4788   -5.1360    0.2764 C   0  0  0  0  0  0  0  0  0  0  0  0
  1  2  1  0  0  0
  1  3  2  0  0  0
  2  6  2  0  0  0
  2  8  1  0  0  0
  3  4  1  0  0  0
  3  7  1  0  0  0
  4  5  2  0  0  0
  4 13  1  0  0  0
  5  6  1  0  0  0
  5 20  1  0  0  0
 13 14  1  0  0  0
 13 18  2  0  0  0
 14 15  2  0  0  0
 15 16  1  0  0  0
 16 17  2  0  0  0
 16 19  1  0  0  0
 17 18  1  0  0  0
 20 21  1  0  0  0
  7  9  1  0  0  0
  7 10  1  0  0  0
  8 11  1  0  0  0
  8 12  1  0  0  0
M  END
> <minimizedAffinity>
-6.31130

$$$$
4KM0_CP6_A_201


 21 22  0  0  0  0  0  0  0  0999 V2000
    3.0750   -4.3053   -0.9156 N   0  0  0  0  0  0  0  0  0  0  0  0
    2.2479   -3.8200    0.0461 C   0  0  0  0  0  0  0  0  0  0  0  0
    3.5352   -5.5770   -0.7238 C   0  0  0  0  0  0  0  0  0  0  0  0
    3.1870   -6.4067    0.3769 C   0  0  0  0  0  0  0  0  0  0  0  0
    2.3734   -5.8332    1.3174 C   0  0  0  0  0  0  0  0  0  0  0  0
    1.9833   -4.5340    1.1902 N   0  0  0  0  0  0  0  0  0  0  0  0
    4.3740   -6.0521   -1.6967 N   0  0  0  0  0  0  0  0  0  0  0  0
    1.7392   -2.6447   -0.0540 N   0  0  0  0  0  0  0  0  0  0  0  0
    4.6167   -5.4797   -2.4600 H   0  0  0  0  0  0  0  0  0  0  0  0
    4.7342   -6.9661   -1.6327 H   0  0  0  0  0  0  0  0  0  0  0  0
    1.9064   -2.1029   -0.8588 H   0  0  0  0  0  0  0  0  0  0  0  0
    1.1821   -2.2858    0.6741 H   0  0  0  0  0  0  0  0  0  0  0  0
    3.6462   -7.7930    0.4384 C   0  0  0  0  0  0  0  0  0  0  0  0
    4.9009   -8.1594    0.9737 C   0  0  0  0  0  0  0  0  0  0  0  0
    5.3345   -9.5138    0.9509 C   0  0  0  0  0  0  0  0  0  0  0  0
    4.4542  -10.4602    0.3368 C   0  0  0  0  0  0  0  0  0  0  0  0
    3.2149  -10.1414   -0.2720 C   0  0  0  0  0  0  0  0  0  0  0  0
    2.8386   -8.7946   -0.1472 C   0  0  0  0  0  0  0  0  0  0  0  0
    4.9827  -12.1221    0.3357 Cl  0  0  0  0  0  0  0  0  0  0  0  0
    1.9184   -6.4898    2.6250 C   0  0  0  0  0  0  0  0  0  0  0  0
    0.9067   -5.5653    3.3457 C   0  0  0  0  0  0  0  0  0  0  0  0
  1  2  1  0  0  0
  1  3  2  0  0  0
  2  6  2  0  0  0
  2  8  1  0  0  0
  3  4  1  0  0  0
  3  7  1  0  0  0
  4  5  2  0  0  0
  4 13  1  0  0  0
  5  6  1  0  0  0
  5 20  1  0  0  0
 13 14  1  0  0  0
 13 18  2  0  0  0
 14 15  2  0  0  0
 15 16  1  0  0  0
 16 17  2  0  0  0
 16 19  1  0  0  0
 17 18  1  0  0  0
 20 21  1  0  0  0
  7  9  1  0  0  0
  7 10  1  0  0  0
  8 11  1  0  0  0
  8 12  1  0  0  0
M  END
> <minimizedAffinity>
-6.28855

$$$$
