1KOJ_PAN_A_902


 23 22  0  0  0  0  0  0  0  0999 V2000
   16.9734    8.9709   30.0547 C   0  0  0  0  0  0  0  0  0  0  0  0
   17.2685    7.7527   29.4006 O   0  0  0  0  0  0  0  0  0  0  0  0
   16.7169    7.0455   29.7700 H   0  0  0  0  0  0  0  0  0  0  0  0
   15.4653    9.3556   29.8270 C   0  0  0  0  0  0  0  0  0  0  0  0
   14.6885    8.1640   30.0691 O   0  0  0  0  0  0  0  0  0  0  0  0
   15.0355    7.4366   29.5293 H   0  0  0  0  0  0  0  0  0  0  0  0
   15.5072    9.9704   28.3867 C   0  0  0  0  0  0  0  0  0  0  0  0
   16.4058   10.3730   27.6567 O   0  0  0  0  0  0  0  0  0  0  0  0
   14.2613   10.0293   27.9557 N   0  0  0  0  0  0  0  0  0  0  0  0
   13.9015   10.5553   26.6463 O   0  0  0  0  0  0  0  0  0  0  0  0
   13.5435    9.7034   28.5454 H   0  0  0  0  0  0  0  0  0  0  0  0
   14.7038   10.8370   26.1794 H   0  0  0  0  0  0  0  0  0  0  0  0
   17.2587    8.6688   31.5644 C   0  0  0  0  0  0  0  0  0  0  0  0
   16.9670    9.8926   32.2614 O   0  0  0  0  0  0  0  0  0  0  0  0
   17.4980   10.6126   31.8865 H   0  0  0  0  0  0  0  0  0  0  0  0
   18.7769    8.3058   31.6769 C   0  0  0  0  0  0  0  0  0  0  0  0
   19.4790    9.3804   30.9115 O   0  0  0  0  0  0  0  0  0  0  0  0
   20.8257    8.7285   30.2186 P   0  0  0  0  0  0  0  0  0  0  0  0
   21.9349    9.7762   30.0596 O   0  0  0  0  0  0  0  0  0  0  0  0
   21.3947    7.6483   31.1184 O   0  0  0  0  0  0  0  0  0  0  0  0
   20.3341    8.1371   28.8910 O   0  0  0  0  0  0  0  0  0  0  0  0
   21.6980    8.0462   31.9494 H   0  0  0  0  0  0  0  0  0  0  0  0
   19.9756    8.8460   28.3344 H   0  0  0  0  0  0  0  0  0  0  0  0
  4  1  1  0  0  0
  4  5  1  0  0  0
  4  7  1  0  0  0
  1 13  1  0  0  0
  1  2  1  0  0  0
 13 16  1  0  0  0
 13 14  1  0  0  0
 16 17  1  0  0  0
 17 18  1  0  0  0
 18 19  2  0  0  0
 18 20  1  0  0  0
 18 21  1  0  0  0
  7  8  2  0  0  0
  7  9  1  0  0  0
  9 10  1  0  0  0
  5  6  1  0  0  0
  2  3  1  0  0  0
 14 15  1  0  0  0
 20 22  1  0  0  0
 21 23  1  0  0  0
  9 11  1  0  0  0
 10 12  1  0  0  0
M  END
> <minimizedAffinity>
-8.72551

$$$$
1KOJ_PAN_A_902


 23 22  0  0  0  0  0  0  0  0999 V2000
   18.7510    7.8963   29.9780 C   0  0  0  0  0  0  0  0  0  0  0  0
   18.1419    7.0041   29.0657 O   0  0  0  0  0  0  0  0  0  0  0  0
   17.6997    7.5093   28.3657 H   0  0  0  0  0  0  0  0  0  0  0  0
   19.8348    8.7665   29.2416 C   0  0  0  0  0  0  0  0  0  0  0  0
   19.9355    8.2578   27.8951 O   0  0  0  0  0  0  0  0  0  0  0  0
   20.0941    7.3012   27.9219 H   0  0  0  0  0  0  0  0  0  0  0  0
   21.0596    8.6361   30.2098 C   0  0  0  0  0  0  0  0  0  0  0  0
   22.0475    9.3262   30.4335 O   0  0  0  0  0  0  0  0  0  0  0  0
   20.9037    7.5100   30.8799 N   0  0  0  0  0  0  0  0  0  0  0  0
   21.8572    7.0449   31.8775 O   0  0  0  0  0  0  0  0  0  0  0  0
   20.1078    6.9601   30.6974 H   0  0  0  0  0  0  0  0  0  0  0  0
   22.5848    7.6822   31.9511 H   0  0  0  0  0  0  0  0  0  0  0  0
   17.5656    8.7824   30.4894 C   0  0  0  0  0  0  0  0  0  0  0  0
   16.4734    7.8723   30.7068 O   0  0  0  0  0  0  0  0  0  0  0  0
   16.2898    7.3860   29.8878 H   0  0  0  0  0  0  0  0  0  0  0  0
   17.2315    9.7989   29.3472 C   0  0  0  0  0  0  0  0  0  0  0  0
   16.3219    9.0485   28.4290 O   0  0  0  0  0  0  0  0  0  0  0  0
   14.8159    9.7112   28.5349 P   0  0  0  0  0  0  0  0  0  0  0  0
   14.8468   11.0526   29.2784 O   0  0  0  0  0  0  0  0  0  0  0  0
   14.2889   10.0137   27.1452 O   0  0  0  0  0  0  0  0  0  0  0  0
   13.9647    8.6373   29.2250 O   0  0  0  0  0  0  0  0  0  0  0  0
   14.8423   10.6939   26.7305 H   0  0  0  0  0  0  0  0  0  0  0  0
   14.3210    8.4617   30.1100 H   0  0  0  0  0  0  0  0  0  0  0  0
  4  1  1  0  0  0
  4  5  1  0  0  0
  4  7  1  0  0  0
  1 13  1  0  0  0
  1  2  1  0  0  0
 13 16  1  0  0  0
 13 14  1  0  0  0
 16 17  1  0  0  0
 17 18  1  0  0  0
 18 19  2  0  0  0
 18 20  1  0  0  0
 18 21  1  0  0  0
  7  8  2  0  0  0
  7  9  1  0  0  0
  9 10  1  0  0  0
  5  6  1  0  0  0
  2  3  1  0  0  0
 14 15  1  0  0  0
 20 22  1  0  0  0
 21 23  1  0  0  0
  9 11  1  0  0  0
 10 12  1  0  0  0
M  END
> <minimizedAffinity>
-8.56509

$$$$
1KOJ_PAN_A_902


 23 22  0  0  0  0  0  0  0  0999 V2000
   16.7690    9.0108   29.0318 C   0  0  0  0  0  0  0  0  0  0  0  0
   16.8299    8.5733   30.3750 O   0  0  0  0  0  0  0  0  0  0  0  0
   17.7125    8.7544   30.7343 H   0  0  0  0  0  0  0  0  0  0  0  0
   17.0206   10.5617   28.9562 C   0  0  0  0  0  0  0  0  0  0  0  0
   17.1259   11.0351   30.3152 O   0  0  0  0  0  0  0  0  0  0  0  0
   16.3485   10.7472   30.8190 H   0  0  0  0  0  0  0  0  0  0  0  0
   15.8232   11.0356   28.0641 C   0  0  0  0  0  0  0  0  0  0  0  0
   15.5889   12.0519   27.4202 O   0  0  0  0  0  0  0  0  0  0  0  0
   14.9268   10.0672   28.0750 N   0  0  0  0  0  0  0  0  0  0  0  0
   13.6637   10.1506   27.3551 O   0  0  0  0  0  0  0  0  0  0  0  0
   15.1205    9.2525   28.5927 H   0  0  0  0  0  0  0  0  0  0  0  0
   13.6101   11.0022   26.8938 H   0  0  0  0  0  0  0  0  0  0  0  0
   17.9166    8.2160   28.3224 C   0  0  0  0  0  0  0  0  0  0  0  0
   18.0612    6.9990   29.0750 O   0  0  0  0  0  0  0  0  0  0  0  0
   18.2335    7.2127   30.0054 H   0  0  0  0  0  0  0  0  0  0  0  0
   19.2076    9.0950   28.4214 C   0  0  0  0  0  0  0  0  0  0  0  0
   20.2628    8.1603   28.9182 O   0  0  0  0  0  0  0  0  0  0  0  0
   20.8814    8.7733   30.3182 P   0  0  0  0  0  0  0  0  0  0  0  0
   21.4403    7.6618   31.2157 O   0  0  0  0  0  0  0  0  0  0  0  0
   22.0503    9.6881   30.0062 O   0  0  0  0  0  0  0  0  0  0  0  0
   19.7217    9.5563   30.9473 O   0  0  0  0  0  0  0  0  0  0  0  0
   22.7690    9.1708   29.6102 H   0  0  0  0  0  0  0  0  0  0  0  0
   18.9881    8.9508   31.1372 H   0  0  0  0  0  0  0  0  0  0  0  0
  4  1  1  0  0  0
  4  5  1  0  0  0
  4  7  1  0  0  0
  1 13  1  0  0  0
  1  2  1  0  0  0
 13 16  1  0  0  0
 13 14  1  0  0  0
 16 17  1  0  0  0
 17 18  1  0  0  0
 18 19  2  0  0  0
 18 20  1  0  0  0
 18 21  1  0  0  0
  7  8  2  0  0  0
  7  9  1  0  0  0
  9 10  1  0  0  0
  5  6  1  0  0  0
  2  3  1  0  0  0
 14 15  1  0  0  0
 20 22  1  0  0  0
 21 23  1  0  0  0
  9 11  1  0  0  0
 10 12  1  0  0  0
M  END
> <minimizedAffinity>
-8.42242

$$$$
1KOJ_PAN_A_902


 23 22  0  0  0  0  0  0  0  0999 V2000
   18.4250    9.0788   30.3207 C   0  0  0  0  0  0  0  0  0  0  0  0
   17.7087   10.1925   30.8163 O   0  0  0  0  0  0  0  0  0  0  0  0
   16.9727    9.8842   31.3678 H   0  0  0  0  0  0  0  0  0  0  0  0
   19.0216    8.2449   31.5136 C   0  0  0  0  0  0  0  0  0  0  0  0
   18.6180    8.9075   32.7302 O   0  0  0  0  0  0  0  0  0  0  0  0
   18.8703    9.8432   32.6878 H   0  0  0  0  0  0  0  0  0  0  0  0
   20.5404    8.1868   31.1335 C   0  0  0  0  0  0  0  0  0  0  0  0
   21.4283    7.3570   31.2919 O   0  0  0  0  0  0  0  0  0  0  0  0
   20.8284    9.3194   30.5204 N   0  0  0  0  0  0  0  0  0  0  0  0
   22.1604    9.6322   30.0218 O   0  0  0  0  0  0  0  0  0  0  0  0
   20.1112    9.9820   30.3946 H   0  0  0  0  0  0  0  0  0  0  0  0
   22.7594    8.8940   30.2145 H   0  0  0  0  0  0  0  0  0  0  0  0
   17.3487    8.2548   29.5368 C   0  0  0  0  0  0  0  0  0  0  0  0
   18.0118    7.0434   29.1350 O   0  0  0  0  0  0  0  0  0  0  0  0
   18.8045    7.2639   28.6213 H   0  0  0  0  0  0  0  0  0  0  0  0
   16.9380    9.1103   28.2923 C   0  0  0  0  0  0  0  0  0  0  0  0
   15.5231    9.5104   28.5604 O   0  0  0  0  0  0  0  0  0  0  0  0
   15.3506   11.1021   28.1666 P   0  0  0  0  0  0  0  0  0  0  0  0
   16.2856   11.4976   27.0166 O   0  0  0  0  0  0  0  0  0  0  0  0
   13.9411   11.3583   27.6685 O   0  0  0  0  0  0  0  0  0  0  0  0
   15.6187   11.8587   29.4741 O   0  0  0  0  0  0  0  0  0  0  0  0
   13.7963   10.8702   26.8428 H   0  0  0  0  0  0  0  0  0  0  0  0
   16.5243   11.6792   29.7717 H   0  0  0  0  0  0  0  0  0  0  0  0
  4  1  1  0  0  0
  4  5  1  0  0  0
  4  7  1  0  0  0
  1 13  1  0  0  0
  1  2  1  0  0  0
 13 16  1  0  0  0
 13 14  1  0  0  0
 16 17  1  0  0  0
 17 18  1  0  0  0
 18 19  2  0  0  0
 18 20  1  0  0  0
 18 21  1  0  0  0
  7  8  2  0  0  0
  7  9  1  0  0  0
  9 10  1  0  0  0
  5  6  1  0  0  0
  2  3  1  0  0  0
 14 15  1  0  0  0
 20 22  1  0  0  0
 21 23  1  0  0  0
  9 11  1  0  0  0
 10 12  1  0  0  0
M  END
> <minimizedAffinity>
-8.20321

$$$$
1KOJ_PAN_A_902


 23 22  0  0  0  0  0  0  0  0999 V2000
   18.0144    8.7129   30.9594 C   0  0  0  0  0  0  0  0  0  0  0  0
   17.1959    7.6811   31.4738 O   0  0  0  0  0  0  0  0  0  0  0  0
   16.6015    7.3621   30.7769 H   0  0  0  0  0  0  0  0  0  0  0  0
   18.8948    8.1657   29.7763 C   0  0  0  0  0  0  0  0  0  0  0  0
   18.1025    7.1750   29.0887 O   0  0  0  0  0  0  0  0  0  0  0  0
   17.7798    6.5194   29.7267 H   0  0  0  0  0  0  0  0  0  0  0  0
   20.1987    7.7272   30.5258 C   0  0  0  0  0  0  0  0  0  0  0  0
   21.2558    8.2853   30.7966 O   0  0  0  0  0  0  0  0  0  0  0  0
   20.0243    6.4747   30.9032 N   0  0  0  0  0  0  0  0  0  0  0  0
   21.0358    5.7193   31.6291 O   0  0  0  0  0  0  0  0  0  0  0  0
   19.1728    6.0315   30.6844 H   0  0  0  0  0  0  0  0  0  0  0  0
   21.8152    6.2784   31.7736 H   0  0  0  0  0  0  0  0  0  0  0  0
   16.9948    9.7891   30.4553 C   0  0  0  0  0  0  0  0  0  0  0  0
   16.9994   10.8200   31.4582 O   0  0  0  0  0  0  0  0  0  0  0  0
   16.7839   10.4327   32.3211 H   0  0  0  0  0  0  0  0  0  0  0  0
   15.5972    9.0895   30.3746 C   0  0  0  0  0  0  0  0  0  0  0  0
   15.3855    8.8377   28.9167 O   0  0  0  0  0  0  0  0  0  0  0  0
   14.9275   10.2535   28.2067 P   0  0  0  0  0  0  0  0  0  0  0  0
   16.0198   10.7886   27.2719 O   0  0  0  0  0  0  0  0  0  0  0  0
   13.7074   10.0207   27.3363 O   0  0  0  0  0  0  0  0  0  0  0  0
   14.5984   11.1886   29.3777 O   0  0  0  0  0  0  0  0  0  0  0  0
   13.9405    9.4279   26.6048 H   0  0  0  0  0  0  0  0  0  0  0  0
   15.3927   11.3216   29.9183 H   0  0  0  0  0  0  0  0  0  0  0  0
  4  1  1  0  0  0
  4  5  1  0  0  0
  4  7  1  0  0  0
  1 13  1  0  0  0
  1  2  1  0  0  0
 13 16  1  0  0  0
 13 14  1  0  0  0
 16 17  1  0  0  0
 17 18  1  0  0  0
 18 19  2  0  0  0
 18 20  1  0  0  0
 18 21  1  0  0  0
  7  8  2  0  0  0
  7  9  1  0  0  0
  9 10  1  0  0  0
  5  6  1  0  0  0
  2  3  1  0  0  0
 14 15  1  0  0  0
 20 22  1  0  0  0
 21 23  1  0  0  0
  9 11  1  0  0  0
 10 12  1  0  0  0
M  END
> <minimizedAffinity>
-8.17221

$$$$
1KOJ_PAN_A_902


 23 22  0  0  0  0  0  0  0  0999 V2000
   17.4118    8.0880   28.3557 C   0  0  0  0  0  0  0  0  0  0  0  0
   18.0610    7.0547   29.0698 O   0  0  0  0  0  0  0  0  0  0  0  0
   18.7706    7.4329   29.6122 H   0  0  0  0  0  0  0  0  0  0  0  0
   16.7686    9.1162   29.3574 C   0  0  0  0  0  0  0  0  0  0  0  0
   16.9710    8.5891   30.6853 O   0  0  0  0  0  0  0  0  0  0  0  0
   16.6376    7.6791   30.7262 H   0  0  0  0  0  0  0  0  0  0  0  0
   15.3135    9.2449   28.7913 C   0  0  0  0  0  0  0  0  0  0  0  0
   14.3374    8.5040   28.7710 O   0  0  0  0  0  0  0  0  0  0  0  0
   15.2201   10.4376   28.2344 N   0  0  0  0  0  0  0  0  0  0  0  0
   14.0047   10.9171   27.5913 O   0  0  0  0  0  0  0  0  0  0  0  0
   16.0066   11.0294   28.2547 H   0  0  0  0  0  0  0  0  0  0  0  0
   13.3183   10.2339   27.6469 H   0  0  0  0  0  0  0  0  0  0  0  0
   18.5598    8.7517   27.5229 C   0  0  0  0  0  0  0  0  0  0  0  0
   19.2260    7.6655   26.8559 O   0  0  0  0  0  0  0  0  0  0  0  0
   19.5262    7.0181   27.5129 H   0  0  0  0  0  0  0  0  0  0  0  0
   19.5150    9.4548   28.5441 C   0  0  0  0  0  0  0  0  0  0  0  0
   20.4513    8.3776   28.9875 O   0  0  0  0  0  0  0  0  0  0  0  0
   20.9437    8.7180   30.5238 P   0  0  0  0  0  0  0  0  0  0  0  0
   19.8001    9.3078   31.3591 O   0  0  0  0  0  0  0  0  0  0  0  0
   21.3594    7.4392   31.2253 O   0  0  0  0  0  0  0  0  0  0  0  0
   22.1387    9.6644   30.3498 O   0  0  0  0  0  0  0  0  0  0  0  0
   20.5884    6.8588   31.3233 H   0  0  0  0  0  0  0  0  0  0  0  0
   21.8479   10.4730   29.8998 H   0  0  0  0  0  0  0  0  0  0  0  0
  4  1  1  0  0  0
  4  5  1  0  0  0
  4  7  1  0  0  0
  1 13  1  0  0  0
  1  2  1  0  0  0
 13 16  1  0  0  0
 13 14  1  0  0  0
 16 17  1  0  0  0
 17 18  1  0  0  0
 18 19  2  0  0  0
 18 20  1  0  0  0
 18 21  1  0  0  0
  7  8  2  0  0  0
  7  9  1  0  0  0
  9 10  1  0  0  0
  5  6  1  0  0  0
  2  3  1  0  0  0
 14 15  1  0  0  0
 20 22  1  0  0  0
 21 23  1  0  0  0
  9 11  1  0  0  0
 10 12  1  0  0  0
M  END
> <minimizedAffinity>
-8.13835

$$$$
1KOJ_PAN_A_902


 23 22  0  0  0  0  0  0  0  0999 V2000
   15.7294    9.5962   29.5287 C   0  0  0  0  0  0  0  0  0  0  0  0
   14.6597    9.5568   30.4524 O   0  0  0  0  0  0  0  0  0  0  0  0
   14.8207   10.1992   31.1612 H   0  0  0  0  0  0  0  0  0  0  0  0
   15.8323   11.0259   28.8808 C   0  0  0  0  0  0  0  0  0  0  0  0
   15.5982   11.9813   29.9365 O   0  0  0  0  0  0  0  0  0  0  0  0
   14.7651   11.7690   30.3857 H   0  0  0  0  0  0  0  0  0  0  0  0
   14.8095   10.9147   27.6994 C   0  0  0  0  0  0  0  0  0  0  0  0
   13.8781   10.1594   27.4454 O   0  0  0  0  0  0  0  0  0  0  0  0
   15.0975   11.8803   26.8473 N   0  0  0  0  0  0  0  0  0  0  0  0
   14.3574   12.0909   25.6110 O   0  0  0  0  0  0  0  0  0  0  0  0
   15.8457   12.4850   27.0567 H   0  0  0  0  0  0  0  0  0  0  0  0
   13.6548   11.4262   25.5376 H   0  0  0  0  0  0  0  0  0  0  0  0
   16.9920    9.2765   30.3978 C   0  0  0  0  0  0  0  0  0  0  0  0
   16.9294   10.1836   31.5121 O   0  0  0  0  0  0  0  0  0  0  0  0
   16.8851   11.0956   31.1846 H   0  0  0  0  0  0  0  0  0  0  0  0
   18.2444    9.5676   29.5056 C   0  0  0  0  0  0  0  0  0  0  0  0
   19.3325    9.8915   30.4776 O   0  0  0  0  0  0  0  0  0  0  0  0
   20.5743    8.8337   30.2378 P   0  0  0  0  0  0  0  0  0  0  0  0
   20.4860    8.1726   28.8564 O   0  0  0  0  0  0  0  0  0  0  0  0
   21.8955    9.5781   30.2630 O   0  0  0  0  0  0  0  0  0  0  0  0
   20.4763    7.8455   31.4074 O   0  0  0  0  0  0  0  0  0  0  0  0
   21.9332   10.1952   29.5156 H   0  0  0  0  0  0  0  0  0  0  0  0
   19.6246    7.3829   31.3693 H   0  0  0  0  0  0  0  0  0  0  0  0
  4  1  1  0  0  0
  4  5  1  0  0  0
  4  7  1  0  0  0
  1 13  1  0  0  0
  1  2  1  0  0  0
 13 16  1  0  0  0
 13 14  1  0  0  0
 16 17  1  0  0  0
 17 18  1  0  0  0
 18 19  2  0  0  0
 18 20  1  0  0  0
 18 21  1  0  0  0
  7  8  2  0  0  0
  7  9  1  0  0  0
  9 10  1  0  0  0
  5  6  1  0  0  0
  2  3  1  0  0  0
 14 15  1  0  0  0
 20 22  1  0  0  0
 21 23  1  0  0  0
  9 11  1  0  0  0
 10 12  1  0  0  0
M  END
> <minimizedAffinity>
-8.07902

$$$$
1KOJ_PAN_A_902


 23 22  0  0  0  0  0  0  0  0999 V2000
   17.9642    8.3465   30.1645 C   0  0  0  0  0  0  0  0  0  0  0  0
   17.9343    7.3713   29.1412 O   0  0  0  0  0  0  0  0  0  0  0  0
   18.7652    7.4011   28.6416 H   0  0  0  0  0  0  0  0  0  0  0  0
   19.1458    8.0501   31.1596 C   0  0  0  0  0  0  0  0  0  0  0  0
   18.9524    8.9057   32.3053 O   0  0  0  0  0  0  0  0  0  0  0  0
   18.8559    9.8246   32.0100 H   0  0  0  0  0  0  0  0  0  0  0  0
   20.3969    8.2615   30.2407 C   0  0  0  0  0  0  0  0  0  0  0  0
   20.7846    7.7502   29.1964 O   0  0  0  0  0  0  0  0  0  0  0  0
   21.1288    9.2083   30.7969 N   0  0  0  0  0  0  0  0  0  0  0  0
   22.3842    9.6757   30.2257 O   0  0  0  0  0  0  0  0  0  0  0  0
   20.8123    9.6166   31.6350 H   0  0  0  0  0  0  0  0  0  0  0  0
   22.5687    9.1879   29.4078 H   0  0  0  0  0  0  0  0  0  0  0  0
   18.1940    9.6925   29.3981 C   0  0  0  0  0  0  0  0  0  0  0  0
   17.6316   10.7135   30.2406 O   0  0  0  0  0  0  0  0  0  0  0  0
   16.7017   10.5063   30.4229 H   0  0  0  0  0  0  0  0  0  0  0  0
   17.4125    9.5856   28.0463 C   0  0  0  0  0  0  0  0  0  0  0  0
   16.3840   10.6676   28.1190 O   0  0  0  0  0  0  0  0  0  0  0  0
   14.9250    9.9750   28.4507 P   0  0  0  0  0  0  0  0  0  0  0  0
   14.9757    8.4524   28.2712 O   0  0  0  0  0  0  0  0  0  0  0  0
   14.5611   10.2143   29.9035 O   0  0  0  0  0  0  0  0  0  0  0  0
   13.9365   10.6791   27.5120 O   0  0  0  0  0  0  0  0  0  0  0  0
   15.1992    9.7601   30.4757 H   0  0  0  0  0  0  0  0  0  0  0  0
   14.1899   10.5114   26.5909 H   0  0  0  0  0  0  0  0  0  0  0  0
  4  1  1  0  0  0
  4  5  1  0  0  0
  4  7  1  0  0  0
  1 13  1  0  0  0
  1  2  1  0  0  0
 13 16  1  0  0  0
 13 14  1  0  0  0
 16 17  1  0  0  0
 17 18  1  0  0  0
 18 19  2  0  0  0
 18 20  1  0  0  0
 18 21  1  0  0  0
  7  8  2  0  0  0
  7  9  1  0  0  0
  9 10  1  0  0  0
  5  6  1  0  0  0
  2  3  1  0  0  0
 14 15  1  0  0  0
 20 22  1  0  0  0
 21 23  1  0  0  0
  9 11  1  0  0  0
 10 12  1  0  0  0
M  END
> <minimizedAffinity>
-7.95278

$$$$
1KOJ_PAN_A_902


 23 22  0  0  0  0  0  0  0  0999 V2000
   17.9962   11.5544   29.4620 C   0  0  0  0  0  0  0  0  0  0  0  0
   17.2441   10.8058   30.3964 O   0  0  0  0  0  0  0  0  0  0  0  0
   16.7288   10.1297   29.9292 H   0  0  0  0  0  0  0  0  0  0  0  0
   18.9994   10.6142   28.6978 C   0  0  0  0  0  0  0  0  0  0  0  0
   18.3085   10.1280   27.5280 O   0  0  0  0  0  0  0  0  0  0  0  0
   17.4626    9.7339   27.7926 H   0  0  0  0  0  0  0  0  0  0  0  0
   19.4131    9.6070   29.8243 C   0  0  0  0  0  0  0  0  0  0  0  0
   19.9231    9.7286   30.9322 O   0  0  0  0  0  0  0  0  0  0  0  0
   19.1115    8.3977   29.3906 N   0  0  0  0  0  0  0  0  0  0  0  0
   19.3594    7.1932   30.1707 O   0  0  0  0  0  0  0  0  0  0  0  0
   18.7008    8.3058   28.5006 H   0  0  0  0  0  0  0  0  0  0  0  0
   19.7641    7.4347   31.0185 H   0  0  0  0  0  0  0  0  0  0  0  0
   16.9173   12.1401   28.4900 C   0  0  0  0  0  0  0  0  0  0  0  0
   17.0336   13.5690   28.6055 O   0  0  0  0  0  0  0  0  0  0  0  0
   16.9241   13.8284   29.5337 H   0  0  0  0  0  0  0  0  0  0  0  0
   15.5245   11.6460   29.0050 C   0  0  0  0  0  0  0  0  0  0  0  0
   15.0643   10.6710   27.9700 O   0  0  0  0  0  0  0  0  0  0  0  0
   14.8689    9.2016   28.6919 P   0  0  0  0  0  0  0  0  0  0  0  0
   16.2018    8.4499   28.7985 O   0  0  0  0  0  0  0  0  0  0  0  0
   14.3781    9.3894   30.1147 O   0  0  0  0  0  0  0  0  0  0  0  0
   13.8169    8.4835   27.8366 O   0  0  0  0  0  0  0  0  0  0  0  0
   15.0592    9.8445   30.6342 H   0  0  0  0  0  0  0  0  0  0  0  0
   14.1534    8.3755   26.9333 H   0  0  0  0  0  0  0  0  0  0  0  0
  4  1  1  0  0  0
  4  5  1  0  0  0
  4  7  1  0  0  0
  1 13  1  0  0  0
  1  2  1  0  0  0
 13 16  1  0  0  0
 13 14  1  0  0  0
 16 17  1  0  0  0
 17 18  1  0  0  0
 18 19  2  0  0  0
 18 20  1  0  0  0
 18 21  1  0  0  0
  7  8  2  0  0  0
  7  9  1  0  0  0
  9 10  1  0  0  0
  5  6  1  0  0  0
  2  3  1  0  0  0
 14 15  1  0  0  0
 20 22  1  0  0  0
 21 23  1  0  0  0
  9 11  1  0  0  0
 10 12  1  0  0  0
M  END
> <minimizedAffinity>
-7.89499

$$$$
1KOJ_PAN_A_902


 23 22  0  0  0  0  0  0  0  0999 V2000
   19.2740    9.4645   29.8105 C   0  0  0  0  0  0  0  0  0  0  0  0
   18.5738   10.6692   30.0508 O   0  0  0  0  0  0  0  0  0  0  0  0
   17.6258   10.4812   30.1334 H   0  0  0  0  0  0  0  0  0  0  0  0
   19.0737    8.4731   31.0152 C   0  0  0  0  0  0  0  0  0  0  0  0
   18.6570    9.2671   32.1456 O   0  0  0  0  0  0  0  0  0  0  0  0
   19.2876    9.9914   32.2819 H   0  0  0  0  0  0  0  0  0  0  0  0
   20.4565    7.7378   31.0559 C   0  0  0  0  0  0  0  0  0  0  0  0
   21.6182    8.0961   30.9001 O   0  0  0  0  0  0  0  0  0  0  0  0
   20.2107    6.4676   31.3162 N   0  0  0  0  0  0  0  0  0  0  0  0
   21.2614    5.4652   31.4257 O   0  0  0  0  0  0  0  0  0  0  0  0
   19.2760    6.1853   31.4418 H   0  0  0  0  0  0  0  0  0  0  0  0
   22.1241    5.8838   31.2798 H   0  0  0  0  0  0  0  0  0  0  0  0
   18.6235    8.9033   28.5014 C   0  0  0  0  0  0  0  0  0  0  0  0
   18.4842   10.0366   27.6269 O   0  0  0  0  0  0  0  0  0  0  0  0
   17.9665   10.7262   28.0713 H   0  0  0  0  0  0  0  0  0  0  0  0
   17.2248    8.3252   28.8998 C   0  0  0  0  0  0  0  0  0  0  0  0
   16.2504    9.3840   28.4956 O   0  0  0  0  0  0  0  0  0  0  0  0
   15.1709    9.5921   29.7243 P   0  0  0  0  0  0  0  0  0  0  0  0
   15.8278    9.3579   31.0907 O   0  0  0  0  0  0  0  0  0  0  0  0
   14.6767   11.0260   29.7366 O   0  0  0  0  0  0  0  0  0  0  0  0
   14.0281    8.6182   29.4088 O   0  0  0  0  0  0  0  0  0  0  0  0
   15.4158   11.6210   29.9379 H   0  0  0  0  0  0  0  0  0  0  0  0
   14.3686    7.7100   29.4066 H   0  0  0  0  0  0  0  0  0  0  0  0
  4  1  1  0  0  0
  4  5  1  0  0  0
  4  7  1  0  0  0
  1 13  1  0  0  0
  1  2  1  0  0  0
 13 16  1  0  0  0
 13 14  1  0  0  0
 16 17  1  0  0  0
 17 18  1  0  0  0
 18 19  2  0  0  0
 18 20  1  0  0  0
 18 21  1  0  0  0
  7  8  2  0  0  0
  7  9  1  0  0  0
  9 10  1  0  0  0
  5  6  1  0  0  0
  2  3  1  0  0  0
 14 15  1  0  0  0
 20 22  1  0  0  0
 21 23  1  0  0  0
  9 11  1  0  0  0
 10 12  1  0  0  0
M  END
> <minimizedAffinity>
-7.84478

$$$$
