4Q46_GDP_A_501


 36 38  0  0  0  0  0  0  0  0999 V2000
   23.4327    2.5901    1.9886 C   0  0  0  0  0  0  0  0  0  0  0  0
   23.4642    1.5301    1.0158 O   0  0  0  0  0  0  0  0  0  0  0  0
   22.0935    2.4499    2.6752 C   0  0  0  0  0  0  0  0  0  0  0  0
   21.1965    3.4206    2.0373 O   0  0  0  0  0  0  0  0  0  0  0  0
   21.7326    0.9481    2.4086 C   0  0  0  0  0  0  0  0  0  0  0  0
   20.3279    0.7325    2.3982 O   0  0  0  0  0  0  0  0  0  0  0  0
   22.2063    0.8647    0.9375 C   0  0  0  0  0  0  0  0  0  0  0  0
   21.1988    3.2808    1.0774 H   0  0  0  0  0  0  0  0  0  0  0  0
   19.9132    1.3341    1.7602 H   0  0  0  0  0  0  0  0  0  0  0  0
   22.5207   -0.5155    0.5192 N   0  0  0  0  0  0  0  0  0  0  0  0
   22.8240   -1.6537    1.2769 C   0  0  0  0  0  0  0  0  0  0  0  0
   23.0957   -2.6726    0.3870 N   0  0  0  0  0  0  0  0  0  0  0  0
   23.0096   -2.1735   -0.8892 C   0  0  0  0  0  0  0  0  0  0  0  0
   23.2286   -2.7344   -2.2418 C   0  0  0  0  0  0  0  0  0  0  0  0
   23.5550   -3.9542   -2.3599 O   0  0  0  0  0  0  0  0  0  0  0  0
   23.0806   -1.8976   -3.2896 N   0  0  0  0  0  0  0  0  0  0  0  0
   22.7194   -0.5787   -3.1655 C   0  0  0  0  0  0  0  0  0  0  0  0
   22.5656    0.2095   -4.2559 N   0  0  0  0  0  0  0  0  0  0  0  0
   22.4913    0.0030   -1.9317 N   0  0  0  0  0  0  0  0  0  0  0  0
   22.6459   -0.7794   -0.7965 C   0  0  0  0  0  0  0  0  0  0  0  0
   23.2406   -2.2525   -4.1939 H   0  0  0  0  0  0  0  0  0  0  0  0
   22.7170   -0.1601   -5.1557 H   0  0  0  0  0  0  0  0  0  0  0  0
   22.3024    1.1521   -4.1487 H   0  0  0  0  0  0  0  0  0  0  0  0
   24.6286    2.3164    2.9376 C   0  0  0  0  0  0  0  0  0  0  0  0
   24.6487    3.3905    3.8876 O   0  0  0  0  0  0  0  0  0  0  0  0
   25.7377    3.4570    5.0470 P   0  0  0  0  0  0  0  0  0  0  0  0
   24.9799    3.0819    6.3081 O   0  0  0  0  0  0  0  0  0  0  0  0
   26.7861    2.5190    4.5867 O   0  0  0  0  0  0  0  0  0  0  0  0
   27.5040    2.4913    5.2385 H   0  0  0  0  0  0  0  0  0  0  0  0
   26.3846    4.8668    5.0016 O   0  0  0  0  0  0  0  0  0  0  0  0
   27.4035    5.5829    3.9960 P   0  0  0  0  0  0  0  0  0  0  0  0
   28.7266    4.8916    4.0694 O   0  0  0  0  0  0  0  0  0  0  0  0
   26.7144    5.2165    2.7044 O   0  0  0  0  0  0  0  0  0  0  0  0
   27.6407    7.0254    4.1823 O   0  0  0  0  0  0  0  0  0  0  0  0
   27.2129    5.5821    1.9569 H   0  0  0  0  0  0  0  0  0  0  0  0
   28.2723    7.3380    3.5157 H   0  0  0  0  0  0  0  0  0  0  0  0
 31 32  2  0  0  0
 31 33  1  0  0  0
 31 34  1  0  0  0
 31 30  1  0  0  0
 30 26  1  0  0  0
 26 27  2  0  0  0
 26 28  1  0  0  0
 26 25  1  0  0  0
 25 24  1  0  0  0
 24  1  1  0  0  0
  1  2  1  0  0  0
  1  3  1  0  0  0
  2  7  1  0  0  0
  3  4  1  0  0  0
  3  5  1  0  0  0
  5  6  1  0  0  0
  5  7  1  0  0  0
  7 10  1  0  0  0
 10 11  1  0  0  0
 10 20  1  0  0  0
 11 12  2  0  0  0
 12 13  1  0  0  0
 13 14  1  0  0  0
 13 20  2  0  0  0
 14 15  2  0  0  0
 14 16  1  0  0  0
 16 17  1  0  0  0
 17 18  1  0  0  0
 17 19  2  0  0  0
 19 20  1  0  0  0
 33 35  1  0  0  0
 34 36  1  0  0  0
 28 29  1  0  0  0
  4  8  1  0  0  0
  6  9  1  0  0  0
 16 21  1  0  0  0
 18 22  1  0  0  0
 18 23  1  0  0  0
M  END
> <minimizedAffinity>
-8.35987

$$$$
4Q46_GDP_A_501


 36 38  0  0  0  0  0  0  0  0999 V2000
   24.9869    3.5725    3.7037 C   0  0  0  0  0  0  0  0  0  0  0  0
   25.5214    4.4004    4.7525 O   0  0  0  0  0  0  0  0  0  0  0  0
   26.1594    3.2925    2.7919 C   0  0  0  0  0  0  0  0  0  0  0  0
   26.0553    4.2429    1.6784 O   0  0  0  0  0  0  0  0  0  0  0  0
   27.3867    3.5225    3.7392 C   0  0  0  0  0  0  0  0  0  0  0  0
   28.5465    3.9197    3.0202 O   0  0  0  0  0  0  0  0  0  0  0  0
   26.8661    4.7814    4.4739 C   0  0  0  0  0  0  0  0  0  0  0  0
   25.9949    5.1456    2.0284 H   0  0  0  0  0  0  0  0  0  0  0  0
   28.3412    4.6993    2.4807 H   0  0  0  0  0  0  0  0  0  0  0  0
   27.4990    4.9714    5.7938 N   0  0  0  0  0  0  0  0  0  0  0  0
   27.0588    4.6240    7.0771 C   0  0  0  0  0  0  0  0  0  0  0  0
   28.0064    5.0832    7.9689 N   0  0  0  0  0  0  0  0  0  0  0  0
   28.9871    5.7387    7.2663 C   0  0  0  0  0  0  0  0  0  0  0  0
   30.2174    6.4739    7.6378 C   0  0  0  0  0  0  0  0  0  0  0  0
   30.5409    6.5594    8.8611 O   0  0  0  0  0  0  0  0  0  0  0  0
   30.9290    7.0338    6.6377 N   0  0  0  0  0  0  0  0  0  0  0  0
   30.5858    6.9360    5.3118 C   0  0  0  0  0  0  0  0  0  0  0  0
   31.3507    7.5019    4.3483 N   0  0  0  0  0  0  0  0  0  0  0  0
   29.4549    6.2557    4.8985 N   0  0  0  0  0  0  0  0  0  0  0  0
   28.6496    5.6697    5.8642 C   0  0  0  0  0  0  0  0  0  0  0  0
   31.7398    7.5408    6.8717 H   0  0  0  0  0  0  0  0  0  0  0  0
   32.1657    7.9966    4.5940 H   0  0  0  0  0  0  0  0  0  0  0  0
   31.0918    7.4187    3.4021 H   0  0  0  0  0  0  0  0  0  0  0  0
   24.4561    2.2988    4.4120 C   0  0  0  0  0  0  0  0  0  0  0  0
   23.0301    2.3134    4.2612 O   0  0  0  0  0  0  0  0  0  0  0  0
   22.3112    1.5503    3.0630 P   0  0  0  0  0  0  0  0  0  0  0  0
   23.3316    0.5305    2.5894 O   0  0  0  0  0  0  0  0  0  0  0  0
   21.0735    1.0270    3.6835 O   0  0  0  0  0  0  0  0  0  0  0  0
   20.5606    0.5391    3.0204 H   0  0  0  0  0  0  0  0  0  0  0  0
   21.8486    2.6192    2.0375 O   0  0  0  0  0  0  0  0  0  0  0  0
   22.2276    2.9239    0.5125 P   0  0  0  0  0  0  0  0  0  0  0  0
   23.4859    3.7294    0.4751 O   0  0  0  0  0  0  0  0  0  0  0  0
   22.5229    1.5075    0.0836 O   0  0  0  0  0  0  0  0  0  0  0  0
   21.2240    3.6222   -0.3103 O   0  0  0  0  0  0  0  0  0  0  0  0
   22.7798    1.4998   -0.8517 H   0  0  0  0  0  0  0  0  0  0  0  0
   21.5712    3.7465   -1.2075 H   0  0  0  0  0  0  0  0  0  0  0  0
 31 32  2  0  0  0
 31 33  1  0  0  0
 31 34  1  0  0  0
 31 30  1  0  0  0
 30 26  1  0  0  0
 26 27  2  0  0  0
 26 28  1  0  0  0
 26 25  1  0  0  0
 25 24  1  0  0  0
 24  1  1  0  0  0
  1  2  1  0  0  0
  1  3  1  0  0  0
  2  7  1  0  0  0
  3  4  1  0  0  0
  3  5  1  0  0  0
  5  6  1  0  0  0
  5  7  1  0  0  0
  7 10  1  0  0  0
 10 11  1  0  0  0
 10 20  1  0  0  0
 11 12  2  0  0  0
 12 13  1  0  0  0
 13 14  1  0  0  0
 13 20  2  0  0  0
 14 15  2  0  0  0
 14 16  1  0  0  0
 16 17  1  0  0  0
 17 18  1  0  0  0
 17 19  2  0  0  0
 19 20  1  0  0  0
 33 35  1  0  0  0
 34 36  1  0  0  0
 28 29  1  0  0  0
  4  8  1  0  0  0
  6  9  1  0  0  0
 16 21  1  0  0  0
 18 22  1  0  0  0
 18 23  1  0  0  0
M  END
> <minimizedAffinity>
-7.74238

$$$$
4Q46_GDP_A_501


 36 38  0  0  0  0  0  0  0  0999 V2000
   25.2206    2.5467    3.4551 C   0  0  0  0  0  0  0  0  0  0  0  0
   24.2945    1.4587    3.2825 O   0  0  0  0  0  0  0  0  0  0  0  0
   24.9411    3.4834    2.3023 C   0  0  0  0  0  0  0  0  0  0  0  0
   25.9483    3.1902    1.2759 O   0  0  0  0  0  0  0  0  0  0  0  0
   23.4720    3.1053    1.9081 C   0  0  0  0  0  0  0  0  0  0  0  0
   23.2035    3.3723    0.5382 O   0  0  0  0  0  0  0  0  0  0  0  0
   23.5947    1.5685    2.0459 C   0  0  0  0  0  0  0  0  0  0  0  0
   25.9314    2.2430    1.0676 H   0  0  0  0  0  0  0  0  0  0  0  0
   23.8641    2.9253   -0.0138 H   0  0  0  0  0  0  0  0  0  0  0  0
   22.2923    0.9129    2.2753 N   0  0  0  0  0  0  0  0  0  0  0  0
   21.3803    1.0359    3.3310 C   0  0  0  0  0  0  0  0  0  0  0  0
   20.3490    0.1539    3.0808 N   0  0  0  0  0  0  0  0  0  0  0  0
   20.6313   -0.5330    1.9260 C   0  0  0  0  0  0  0  0  0  0  0  0
   19.9628   -1.6175    1.1717 C   0  0  0  0  0  0  0  0  0  0  0  0
   18.8582   -2.0751    1.5949 O   0  0  0  0  0  0  0  0  0  0  0  0
   20.5847   -2.0759    0.0657 N   0  0  0  0  0  0  0  0  0  0  0  0
   21.7764   -1.5770   -0.3996 C   0  0  0  0  0  0  0  0  0  0  0  0
   22.3444   -2.0631   -1.5286 N   0  0  0  0  0  0  0  0  0  0  0  0
   22.4463   -0.5585    0.2534 N   0  0  0  0  0  0  0  0  0  0  0  0
   21.8902   -0.0441    1.4156 C   0  0  0  0  0  0  0  0  0  0  0  0
   20.1604   -2.8091   -0.4359 H   0  0  0  0  0  0  0  0  0  0  0  0
   21.9045   -2.7886   -2.0280 H   0  0  0  0  0  0  0  0  0  0  0  0
   23.1974   -1.6911   -1.8501 H   0  0  0  0  0  0  0  0  0  0  0  0
   24.8767    3.1678    4.8341 C   0  0  0  0  0  0  0  0  0  0  0  0
   26.1269    3.4268    5.4871 O   0  0  0  0  0  0  0  0  0  0  0  0
   26.8030    4.8678    5.4509 P   0  0  0  0  0  0  0  0  0  0  0  0
   25.6613    5.8204    5.1434 O   0  0  0  0  0  0  0  0  0  0  0  0
   27.4361    4.9828    6.7838 O   0  0  0  0  0  0  0  0  0  0  0  0
   27.8805    5.8419    6.8576 H   0  0  0  0  0  0  0  0  0  0  0  0
   27.9726    4.8109    4.4326 O   0  0  0  0  0  0  0  0  0  0  0  0
   29.2612    3.8735    4.2816 P   0  0  0  0  0  0  0  0  0  0  0  0
   30.0230    3.8824    5.5674 O   0  0  0  0  0  0  0  0  0  0  0  0
   28.5436    2.5547    4.1300 O   0  0  0  0  0  0  0  0  0  0  0  0
   30.2081    4.1900    3.1976 O   0  0  0  0  0  0  0  0  0  0  0  0
   29.1940    1.8431    4.0233 H   0  0  0  0  0  0  0  0  0  0  0  0
   30.9403    3.5539    3.2119 H   0  0  0  0  0  0  0  0  0  0  0  0
 31 32  2  0  0  0
 31 33  1  0  0  0
 31 34  1  0  0  0
 31 30  1  0  0  0
 30 26  1  0  0  0
 26 27  2  0  0  0
 26 28  1  0  0  0
 26 25  1  0  0  0
 25 24  1  0  0  0
 24  1  1  0  0  0
  1  2  1  0  0  0
  1  3  1  0  0  0
  2  7  1  0  0  0
  3  4  1  0  0  0
  3  5  1  0  0  0
  5  6  1  0  0  0
  5  7  1  0  0  0
  7 10  1  0  0  0
 10 11  1  0  0  0
 10 20  1  0  0  0
 11 12  2  0  0  0
 12 13  1  0  0  0
 13 14  1  0  0  0
 13 20  2  0  0  0
 14 15  2  0  0  0
 14 16  1  0  0  0
 16 17  1  0  0  0
 17 18  1  0  0  0
 17 19  2  0  0  0
 19 20  1  0  0  0
 33 35  1  0  0  0
 34 36  1  0  0  0
 28 29  1  0  0  0
  4  8  1  0  0  0
  6  9  1  0  0  0
 16 21  1  0  0  0
 18 22  1  0  0  0
 18 23  1  0  0  0
M  END
> <minimizedAffinity>
-7.60685

$$$$
4Q46_GDP_A_501


 36 38  0  0  0  0  0  0  0  0999 V2000
   23.7106    2.3264    2.2665 C   0  0  0  0  0  0  0  0  0  0  0  0
   23.7320    1.3015    1.2564 O   0  0  0  0  0  0  0  0  0  0  0  0
   22.3073    2.2924    2.8271 C   0  0  0  0  0  0  0  0  0  0  0  0
   21.5658    3.3656    2.1547 O   0  0  0  0  0  0  0  0  0  0  0  0
   21.8347    0.8420    2.4671 C   0  0  0  0  0  0  0  0  0  0  0  0
   20.4228    0.7626    2.3251 O   0  0  0  0  0  0  0  0  0  0  0  0
   22.4303    0.7630    1.0407 C   0  0  0  0  0  0  0  0  0  0  0  0
   21.6424    3.2585    1.1936 H   0  0  0  0  0  0  0  0  0  0  0  0
   20.1252    1.4223    1.6792 H   0  0  0  0  0  0  0  0  0  0  0  0
   22.6522   -0.6263    0.5939 N   0  0  0  0  0  0  0  0  0  0  0  0
   22.9174   -1.7906    1.3256 C   0  0  0  0  0  0  0  0  0  0  0  0
   23.1006   -2.8097    0.4136 N   0  0  0  0  0  0  0  0  0  0  0  0
   22.9983   -2.2878   -0.8522 C   0  0  0  0  0  0  0  0  0  0  0  0
   23.1384   -2.8398   -2.2188 C   0  0  0  0  0  0  0  0  0  0  0  0
   23.3918   -4.0740   -2.3642 O   0  0  0  0  0  0  0  0  0  0  0  0
   23.0012   -1.9807   -3.2499 N   0  0  0  0  0  0  0  0  0  0  0  0
   22.7189   -0.6457   -3.0961 C   0  0  0  0  0  0  0  0  0  0  0  0
   22.5717    0.1658   -4.1701 N   0  0  0  0  0  0  0  0  0  0  0  0
   22.5667   -0.0706   -1.8476 N   0  0  0  0  0  0  0  0  0  0  0  0
   22.7167   -0.8771   -0.7288 C   0  0  0  0  0  0  0  0  0  0  0  0
   23.1095   -2.3304   -4.1638 H   0  0  0  0  0  0  0  0  0  0  0  0
   22.6709   -0.1982   -5.0794 H   0  0  0  0  0  0  0  0  0  0  0  0
   22.3655    1.1199   -4.0416 H   0  0  0  0  0  0  0  0  0  0  0  0
   24.7848    1.9074    3.3039 C   0  0  0  0  0  0  0  0  0  0  0  0
   24.5697    2.7219    4.4644 O   0  0  0  0  0  0  0  0  0  0  0  0
   25.7190    3.6528    5.0536 P   0  0  0  0  0  0  0  0  0  0  0  0
   26.9674    3.2543    4.2867 O   0  0  0  0  0  0  0  0  0  0  0  0
   25.1995    5.0208    4.8314 O   0  0  0  0  0  0  0  0  0  0  0  0
   25.8411    5.6682    5.1634 H   0  0  0  0  0  0  0  0  0  0  0  0
   25.7391    3.4548    6.5926 O   0  0  0  0  0  0  0  0  0  0  0  0
   25.7081    2.1659    7.5412 P   0  0  0  0  0  0  0  0  0  0  0  0
   24.2968    1.8992    7.9543 O   0  0  0  0  0  0  0  0  0  0  0  0
   26.1354    1.1429    6.5174 O   0  0  0  0  0  0  0  0  0  0  0  0
   26.5333    2.2007    8.7617 O   0  0  0  0  0  0  0  0  0  0  0  0
   26.1729    0.2667    6.9319 H   0  0  0  0  0  0  0  0  0  0  0  0
   26.4285    1.3673    9.2467 H   0  0  0  0  0  0  0  0  0  0  0  0
 31 32  2  0  0  0
 31 33  1  0  0  0
 31 34  1  0  0  0
 31 30  1  0  0  0
 30 26  1  0  0  0
 26 27  2  0  0  0
 26 28  1  0  0  0
 26 25  1  0  0  0
 25 24  1  0  0  0
 24  1  1  0  0  0
  1  2  1  0  0  0
  1  3  1  0  0  0
  2  7  1  0  0  0
  3  4  1  0  0  0
  3  5  1  0  0  0
  5  6  1  0  0  0
  5  7  1  0  0  0
  7 10  1  0  0  0
 10 11  1  0  0  0
 10 20  1  0  0  0
 11 12  2  0  0  0
 12 13  1  0  0  0
 13 14  1  0  0  0
 13 20  2  0  0  0
 14 15  2  0  0  0
 14 16  1  0  0  0
 16 17  1  0  0  0
 17 18  1  0  0  0
 17 19  2  0  0  0
 19 20  1  0  0  0
 33 35  1  0  0  0
 34 36  1  0  0  0
 28 29  1  0  0  0
  4  8  1  0  0  0
  6  9  1  0  0  0
 16 21  1  0  0  0
 18 22  1  0  0  0
 18 23  1  0  0  0
M  END
> <minimizedAffinity>
-7.39094

$$$$
4Q46_GDP_A_501


 36 38  0  0  0  0  0  0  0  0999 V2000
   26.0683    3.1350    6.9048 C   0  0  0  0  0  0  0  0  0  0  0  0
   25.3693    3.4652    5.6909 O   0  0  0  0  0  0  0  0  0  0  0  0
   25.5703    1.7580    7.2795 C   0  0  0  0  0  0  0  0  0  0  0  0
   24.5277    1.9556    8.2933 O   0  0  0  0  0  0  0  0  0  0  0  0
   25.0557    1.2000    5.9082 C   0  0  0  0  0  0  0  0  0  0  0  0
   24.0252    0.2363    6.0791 O   0  0  0  0  0  0  0  0  0  0  0  0
   24.3769    2.4891    5.3856 C   0  0  0  0  0  0  0  0  0  0  0  0
   23.8596    2.5716    7.9542 H   0  0  0  0  0  0  0  0  0  0  0  0
   23.3133    0.6163    6.6173 H   0  0  0  0  0  0  0  0  0  0  0  0
   24.2502    2.5085    3.9151 N   0  0  0  0  0  0  0  0  0  0  0  0
   25.0138    3.1629    2.9404 C   0  0  0  0  0  0  0  0  0  0  0  0
   24.4300    2.8933    1.7195 N   0  0  0  0  0  0  0  0  0  0  0  0
   23.3079    2.1307    1.9300 C   0  0  0  0  0  0  0  0  0  0  0  0
   22.2531    1.5698    1.0554 C   0  0  0  0  0  0  0  0  0  0  0  0
   22.3190    1.7649   -0.1960 O   0  0  0  0  0  0  0  0  0  0  0  0
   21.2559    0.8837    1.6513 N   0  0  0  0  0  0  0  0  0  0  0  0
   21.1860    0.6639    3.0049 C   0  0  0  0  0  0  0  0  0  0  0  0
   20.1707   -0.0508    3.5454 N   0  0  0  0  0  0  0  0  0  0  0  0
   22.1439    1.1526    3.8745 N   0  0  0  0  0  0  0  0  0  0  0  0
   23.1934    1.8925    3.3493 C   0  0  0  0  0  0  0  0  0  0  0  0
   20.5382    0.5203    1.0838 H   0  0  0  0  0  0  0  0  0  0  0  0
   19.4650   -0.4191    2.9661 H   0  0  0  0  0  0  0  0  0  0  0  0
   20.1383   -0.2021    4.5177 H   0  0  0  0  0  0  0  0  0  0  0  0
   27.5740    3.1512    6.5326 C   0  0  0  0  0  0  0  0  0  0  0  0
   27.6984    3.9892    5.3756 O   0  0  0  0  0  0  0  0  0  0  0  0
   28.9264    3.8473    4.3723 P   0  0  0  0  0  0  0  0  0  0  0  0
   29.4215    2.4255    4.5693 O   0  0  0  0  0  0  0  0  0  0  0  0
   28.3343    4.1785    3.0569 O   0  0  0  0  0  0  0  0  0  0  0  0
   29.0171    4.1184    2.3706 H   0  0  0  0  0  0  0  0  0  0  0  0
   29.9228    4.9949    4.6865 O   0  0  0  0  0  0  0  0  0  0  0  0
   29.7440    6.5304    5.1015 P   0  0  0  0  0  0  0  0  0  0  0  0
   28.5090    7.0689    4.4547 O   0  0  0  0  0  0  0  0  0  0  0  0
   29.4910    6.3206    6.5744 O   0  0  0  0  0  0  0  0  0  0  0  0
   30.8512    7.4516    4.7897 O   0  0  0  0  0  0  0  0  0  0  0  0
   29.3551    7.1793    7.0046 H   0  0  0  0  0  0  0  0  0  0  0  0
   30.6222    8.3454    5.0890 H   0  0  0  0  0  0  0  0  0  0  0  0
 31 32  2  0  0  0
 31 33  1  0  0  0
 31 34  1  0  0  0
 31 30  1  0  0  0
 30 26  1  0  0  0
 26 27  2  0  0  0
 26 28  1  0  0  0
 26 25  1  0  0  0
 25 24  1  0  0  0
 24  1  1  0  0  0
  1  2  1  0  0  0
  1  3  1  0  0  0
  2  7  1  0  0  0
  3  4  1  0  0  0
  3  5  1  0  0  0
  5  6  1  0  0  0
  5  7  1  0  0  0
  7 10  1  0  0  0
 10 11  1  0  0  0
 10 20  1  0  0  0
 11 12  2  0  0  0
 12 13  1  0  0  0
 13 14  1  0  0  0
 13 20  2  0  0  0
 14 15  2  0  0  0
 14 16  1  0  0  0
 16 17  1  0  0  0
 17 18  1  0  0  0
 17 19  2  0  0  0
 19 20  1  0  0  0
 33 35  1  0  0  0
 34 36  1  0  0  0
 28 29  1  0  0  0
  4  8  1  0  0  0
  6  9  1  0  0  0
 16 21  1  0  0  0
 18 22  1  0  0  0
 18 23  1  0  0  0
M  END
> <minimizedAffinity>
-7.28409

$$$$
4Q46_GDP_A_501


 36 38  0  0  0  0  0  0  0  0999 V2000
   27.8072    3.6716    3.6456 C   0  0  0  0  0  0  0  0  0  0  0  0
   26.5887    3.0206    3.2424 O   0  0  0  0  0  0  0  0  0  0  0  0
   27.3616    4.8588    4.4681 C   0  0  0  0  0  0  0  0  0  0  0  0
   27.3957    6.0206    3.5720 O   0  0  0  0  0  0  0  0  0  0  0  0
   25.9275    4.4291    4.9323 C   0  0  0  0  0  0  0  0  0  0  0  0
   25.0886    5.5506    5.1743 O   0  0  0  0  0  0  0  0  0  0  0  0
   25.4472    3.7926    3.6058 C   0  0  0  0  0  0  0  0  0  0  0  0
   26.8709    5.8323    2.7783 H   0  0  0  0  0  0  0  0  0  0  0  0
   25.0711    6.1171    4.3872 H   0  0  0  0  0  0  0  0  0  0  0  0
   24.3616    2.8127    3.8061 N   0  0  0  0  0  0  0  0  0  0  0  0
   24.1257    1.9107    4.8512 C   0  0  0  0  0  0  0  0  0  0  0  0
   23.0024    1.1839    4.5136 N   0  0  0  0  0  0  0  0  0  0  0  0
   22.5760    1.5885    3.2729 C   0  0  0  0  0  0  0  0  0  0  0  0
   21.4842    1.1743    2.3626 C   0  0  0  0  0  0  0  0  0  0  0  0
   20.6909    0.2543    2.7270 O   0  0  0  0  0  0  0  0  0  0  0  0
   21.4028    1.7994    1.1699 N   0  0  0  0  0  0  0  0  0  0  0  0
   22.2551    2.8013    0.7757 C   0  0  0  0  0  0  0  0  0  0  0  0
   22.1124    3.4076   -0.4267 N   0  0  0  0  0  0  0  0  0  0  0  0
   23.2887    3.2404    1.5829 N   0  0  0  0  0  0  0  0  0  0  0  0
   23.4618    2.6342    2.8187 C   0  0  0  0  0  0  0  0  0  0  0  0
   20.6926    1.5218    0.5472 H   0  0  0  0  0  0  0  0  0  0  0  0
   21.3910    3.1291   -1.0359 H   0  0  0  0  0  0  0  0  0  0  0  0
   22.7302    4.1270   -0.6916 H   0  0  0  0  0  0  0  0  0  0  0  0
   28.5831    2.6180    4.4784 C   0  0  0  0  0  0  0  0  0  0  0  0
   29.9762    2.8412    4.2212 O   0  0  0  0  0  0  0  0  0  0  0  0
   30.8553    3.7840    5.1555 P   0  0  0  0  0  0  0  0  0  0  0  0
   30.3529    3.5082    6.5616 O   0  0  0  0  0  0  0  0  0  0  0  0
   32.2437    3.3768    4.8440 O   0  0  0  0  0  0  0  0  0  0  0  0
   32.8619    3.9045    5.3734 H   0  0  0  0  0  0  0  0  0  0  0  0
   30.7125    5.2349    4.6236 O   0  0  0  0  0  0  0  0  0  0  0  0
   30.8465    6.6784    5.3021 P   0  0  0  0  0  0  0  0  0  0  0  0
   29.4819    7.2614    5.4797 O   0  0  0  0  0  0  0  0  0  0  0  0
   31.3816    6.2313    6.6404 O   0  0  0  0  0  0  0  0  0  0  0  0
   31.6751    7.6806    4.6088 O   0  0  0  0  0  0  0  0  0  0  0  0
   31.5282    7.0062    7.2052 H   0  0  0  0  0  0  0  0  0  0  0  0
   31.6761    8.5068    5.1169 H   0  0  0  0  0  0  0  0  0  0  0  0
 31 32  2  0  0  0
 31 33  1  0  0  0
 31 34  1  0  0  0
 31 30  1  0  0  0
 30 26  1  0  0  0
 26 27  2  0  0  0
 26 28  1  0  0  0
 26 25  1  0  0  0
 25 24  1  0  0  0
 24  1  1  0  0  0
  1  2  1  0  0  0
  1  3  1  0  0  0
  2  7  1  0  0  0
  3  4  1  0  0  0
  3  5  1  0  0  0
  5  6  1  0  0  0
  5  7  1  0  0  0
  7 10  1  0  0  0
 10 11  1  0  0  0
 10 20  1  0  0  0
 11 12  2  0  0  0
 12 13  1  0  0  0
 13 14  1  0  0  0
 13 20  2  0  0  0
 14 15  2  0  0  0
 14 16  1  0  0  0
 16 17  1  0  0  0
 17 18  1  0  0  0
 17 19  2  0  0  0
 19 20  1  0  0  0
 33 35  1  0  0  0
 34 36  1  0  0  0
 28 29  1  0  0  0
  4  8  1  0  0  0
  6  9  1  0  0  0
 16 21  1  0  0  0
 18 22  1  0  0  0
 18 23  1  0  0  0
M  END
> <minimizedAffinity>
-7.16094

$$$$
4Q46_GDP_A_501


 36 38  0  0  0  0  0  0  0  0999 V2000
   24.1126    2.8748    2.9525 C   0  0  0  0  0  0  0  0  0  0  0  0
   24.5066    3.4940    4.1904 O   0  0  0  0  0  0  0  0  0  0  0  0
   25.3511    2.9108    2.0868 C   0  0  0  0  0  0  0  0  0  0  0  0
   25.2042    4.0713    1.2004 O   0  0  0  0  0  0  0  0  0  0  0  0
   26.5001    3.0342    3.1457 C   0  0  0  0  0  0  0  0  0  0  0  0
   27.6466    3.6838    2.6131 O   0  0  0  0  0  0  0  0  0  0  0  0
   25.8168    4.0467    4.0963 C   0  0  0  0  0  0  0  0  0  0  0  0
   25.0338    4.8646    1.7320 H   0  0  0  0  0  0  0  0  0  0  0  0
   27.3887    4.5419    2.2417 H   0  0  0  0  0  0  0  0  0  0  0  0
   26.3611    3.9952    5.4674 N   0  0  0  0  0  0  0  0  0  0  0  0
   25.9346    3.2809    6.5941 C   0  0  0  0  0  0  0  0  0  0  0  0
   26.7622    3.6391    7.6385 N   0  0  0  0  0  0  0  0  0  0  0  0
   27.6507    4.5841    7.1884 C   0  0  0  0  0  0  0  0  0  0  0  0
   28.7323    5.3766    7.8162 C   0  0  0  0  0  0  0  0  0  0  0  0
   28.9919    5.2036    9.0455 O   0  0  0  0  0  0  0  0  0  0  0  0
   29.3820    6.2641    7.0350 N   0  0  0  0  0  0  0  0  0  0  0  0
   29.1089    6.4478    5.7019 C   0  0  0  0  0  0  0  0  0  0  0  0
   29.8087    7.3399    4.9615 N   0  0  0  0  0  0  0  0  0  0  0  0
   28.1180    5.7329    5.0542 N   0  0  0  0  0  0  0  0  0  0  0  0
   27.3814    4.8150    5.7889 C   0  0  0  0  0  0  0  0  0  0  0  0
   30.0916    6.8107    7.4435 H   0  0  0  0  0  0  0  0  0  0  0  0
   30.5240    7.8723    5.3788 H   0  0  0  0  0  0  0  0  0  0  0  0
   29.6022    7.4561    4.0060 H   0  0  0  0  0  0  0  0  0  0  0  0
   23.6820    1.4333    3.3296 C   0  0  0  0  0  0  0  0  0  0  0  0
   22.4707    1.1686    2.6091 O   0  0  0  0  0  0  0  0  0  0  0  0
   22.4667    0.2939    1.2788 P   0  0  0  0  0  0  0  0  0  0  0  0
   22.7888    1.2795    0.1697 O   0  0  0  0  0  0  0  0  0  0  0  0
   23.4697   -0.7583    1.5575 O   0  0  0  0  0  0  0  0  0  0  0  0
   23.5390   -1.3499    0.7919 H   0  0  0  0  0  0  0  0  0  0  0  0
   21.0998   -0.4369    1.2029 O   0  0  0  0  0  0  0  0  0  0  0  0
   20.2225   -1.2522    2.2649 P   0  0  0  0  0  0  0  0  0  0  0  0
   18.8607   -1.4851    1.6948 O   0  0  0  0  0  0  0  0  0  0  0  0
   21.0071   -2.5410    2.2385 O   0  0  0  0  0  0  0  0  0  0  0  0
   20.0526   -0.6594    3.6034 O   0  0  0  0  0  0  0  0  0  0  0  0
   20.6026   -3.1783    2.8477 H   0  0  0  0  0  0  0  0  0  0  0  0
   19.5053   -1.2452    4.1493 H   0  0  0  0  0  0  0  0  0  0  0  0
 31 32  2  0  0  0
 31 33  1  0  0  0
 31 34  1  0  0  0
 31 30  1  0  0  0
 30 26  1  0  0  0
 26 27  2  0  0  0
 26 28  1  0  0  0
 26 25  1  0  0  0
 25 24  1  0  0  0
 24  1  1  0  0  0
  1  2  1  0  0  0
  1  3  1  0  0  0
  2  7  1  0  0  0
  3  4  1  0  0  0
  3  5  1  0  0  0
  5  6  1  0  0  0
  5  7  1  0  0  0
  7 10  1  0  0  0
 10 11  1  0  0  0
 10 20  1  0  0  0
 11 12  2  0  0  0
 12 13  1  0  0  0
 13 14  1  0  0  0
 13 20  2  0  0  0
 14 15  2  0  0  0
 14 16  1  0  0  0
 16 17  1  0  0  0
 17 18  1  0  0  0
 17 19  2  0  0  0
 19 20  1  0  0  0
 33 35  1  0  0  0
 34 36  1  0  0  0
 28 29  1  0  0  0
  4  8  1  0  0  0
  6  9  1  0  0  0
 16 21  1  0  0  0
 18 22  1  0  0  0
 18 23  1  0  0  0
M  END
> <minimizedAffinity>
-7.05193

$$$$
4Q46_GDP_A_501


 36 38  0  0  0  0  0  0  0  0999 V2000
   25.2222    2.9861    3.4426 C   0  0  0  0  0  0  0  0  0  0  0  0
   24.3549    1.8382    3.4091 O   0  0  0  0  0  0  0  0  0  0  0  0
   24.9340    3.7304    2.1591 C   0  0  0  0  0  0  0  0  0  0  0  0
   25.9851    3.3442    1.2105 O   0  0  0  0  0  0  0  0  0  0  0  0
   23.4975    3.2237    1.7898 C   0  0  0  0  0  0  0  0  0  0  0  0
   23.2589    3.2752    0.3897 O   0  0  0  0  0  0  0  0  0  0  0  0
   23.6891    1.7315    2.1536 C   0  0  0  0  0  0  0  0  0  0  0  0
   26.0200    2.3772    1.1426 H   0  0  0  0  0  0  0  0  0  0  0  0
   23.9567    2.7878   -0.0754 H   0  0  0  0  0  0  0  0  0  0  0  0
   22.4130    1.0495    2.4457 N   0  0  0  0  0  0  0  0  0  0  0  0
   21.5522    1.1527    3.5455 C   0  0  0  0  0  0  0  0  0  0  0  0
   20.5277    0.2505    3.3445 N   0  0  0  0  0  0  0  0  0  0  0  0
   20.7661   -0.4291    2.1756 C   0  0  0  0  0  0  0  0  0  0  0  0
   20.0829   -1.5258    1.4528 C   0  0  0  0  0  0  0  0  0  0  0  0
   19.0100   -2.0061    1.9291 O   0  0  0  0  0  0  0  0  0  0  0  0
   20.6584   -1.9701    0.3163 N   0  0  0  0  0  0  0  0  0  0  0  0
   21.8153   -1.4467   -0.2062 C   0  0  0  0  0  0  0  0  0  0  0  0
   22.3364   -1.9198   -1.3631 N   0  0  0  0  0  0  0  0  0  0  0  0
   22.4962   -0.4158    0.4152 N   0  0  0  0  0  0  0  0  0  0  0  0
   21.9881    0.0858    1.6047 C   0  0  0  0  0  0  0  0  0  0  0  0
   20.2245   -2.7110   -0.1654 H   0  0  0  0  0  0  0  0  0  0  0  0
   21.8869   -2.6533   -1.8418 H   0  0  0  0  0  0  0  0  0  0  0  0
   23.1647   -1.5303   -1.7255 H   0  0  0  0  0  0  0  0  0  0  0  0
   24.8067    3.7818    4.7075 C   0  0  0  0  0  0  0  0  0  0  0  0
   24.3623    2.8151    5.6689 O   0  0  0  0  0  0  0  0  0  0  0  0
   25.3060    2.3227    6.8528 P   0  0  0  0  0  0  0  0  0  0  0  0
   26.1285    3.5444    7.2222 O   0  0  0  0  0  0  0  0  0  0  0  0
   24.3510    1.8217    7.8666 O   0  0  0  0  0  0  0  0  0  0  0  0
   24.8401    1.4952    8.6380 H   0  0  0  0  0  0  0  0  0  0  0  0
   26.0779    1.0746    6.3482 O   0  0  0  0  0  0  0  0  0  0  0  0
   25.6681   -0.4531    6.1027 P   0  0  0  0  0  0  0  0  0  0  0  0
   25.4539   -1.1181    7.4239 O   0  0  0  0  0  0  0  0  0  0  0  0
   24.3347   -0.2078    5.4400 O   0  0  0  0  0  0  0  0  0  0  0  0
   26.5997   -1.2899    5.3258 O   0  0  0  0  0  0  0  0  0  0  0  0
   23.9255   -1.0573    5.2124 H   0  0  0  0  0  0  0  0  0  0  0  0
   26.2400   -2.1873    5.2476 H   0  0  0  0  0  0  0  0  0  0  0  0
 31 32  2  0  0  0
 31 33  1  0  0  0
 31 34  1  0  0  0
 31 30  1  0  0  0
 30 26  1  0  0  0
 26 27  2  0  0  0
 26 28  1  0  0  0
 26 25  1  0  0  0
 25 24  1  0  0  0
 24  1  1  0  0  0
  1  2  1  0  0  0
  1  3  1  0  0  0
  2  7  1  0  0  0
  3  4  1  0  0  0
  3  5  1  0  0  0
  5  6  1  0  0  0
  5  7  1  0  0  0
  7 10  1  0  0  0
 10 11  1  0  0  0
 10 20  1  0  0  0
 11 12  2  0  0  0
 12 13  1  0  0  0
 13 14  1  0  0  0
 13 20  2  0  0  0
 14 15  2  0  0  0
 14 16  1  0  0  0
 16 17  1  0  0  0
 17 18  1  0  0  0
 17 19  2  0  0  0
 19 20  1  0  0  0
 33 35  1  0  0  0
 34 36  1  0  0  0
 28 29  1  0  0  0
  4  8  1  0  0  0
  6  9  1  0  0  0
 16 21  1  0  0  0
 18 22  1  0  0  0
 18 23  1  0  0  0
M  END
> <minimizedAffinity>
-6.76892

$$$$
4Q46_GDP_A_501


 36 38  0  0  0  0  0  0  0  0999 V2000
   26.3002    3.6500    6.4763 C   0  0  0  0  0  0  0  0  0  0  0  0
   25.3062    3.5321    5.4422 O   0  0  0  0  0  0  0  0  0  0  0  0
   27.3136    2.5719    6.1681 C   0  0  0  0  0  0  0  0  0  0  0  0
   26.9857    1.4341    7.0353 O   0  0  0  0  0  0  0  0  0  0  0  0
   27.0839    2.3194    4.6384 C   0  0  0  0  0  0  0  0  0  0  0  0
   27.4407    0.9973    4.2581 O   0  0  0  0  0  0  0  0  0  0  0  0
   25.5373    2.3814    4.6339 C   0  0  0  0  0  0  0  0  0  0  0  0
   26.0549    1.1908    6.9113 H   0  0  0  0  0  0  0  0  0  0  0  0
   26.9661    0.3612    4.8159 H   0  0  0  0  0  0  0  0  0  0  0  0
   24.9862    2.7200    3.3070 N   0  0  0  0  0  0  0  0  0  0  0  0
   25.4971    3.5287    2.2842 C   0  0  0  0  0  0  0  0  0  0  0  0
   24.5532    3.5546    1.2780 N   0  0  0  0  0  0  0  0  0  0  0  0
   23.4648    2.8207    1.6802 C   0  0  0  0  0  0  0  0  0  0  0  0
   22.1432    2.5117    1.0886 C   0  0  0  0  0  0  0  0  0  0  0  0
   21.8590    2.9655   -0.0611 O   0  0  0  0  0  0  0  0  0  0  0  0
   21.2954    1.7643    1.8253 N   0  0  0  0  0  0  0  0  0  0  0  0
   21.6031    1.2647    3.0668 C   0  0  0  0  0  0  0  0  0  0  0  0
   20.7186    0.5021    3.7522 N   0  0  0  0  0  0  0  0  0  0  0  0
   22.8231    1.5092    3.6704 N   0  0  0  0  0  0  0  0  0  0  0  0
   23.7474    2.2915    2.9934 C   0  0  0  0  0  0  0  0  0  0  0  0
   20.4063    1.5659    1.4519 H   0  0  0  0  0  0  0  0  0  0  0  0
   19.8370    0.3009    3.3631 H   0  0  0  0  0  0  0  0  0  0  0  0
   20.9573    0.1488    4.6396 H   0  0  0  0  0  0  0  0  0  0  0  0
   26.8797    5.0815    6.3318 C   0  0  0  0  0  0  0  0  0  0  0  0
   28.3009    4.9350    6.2094 O   0  0  0  0  0  0  0  0  0  0  0  0
   29.1898    6.0258    5.4648 P   0  0  0  0  0  0  0  0  0  0  0  0
   28.3287    6.4983    4.3069 O   0  0  0  0  0  0  0  0  0  0  0  0
   29.4870    7.0104    6.5292 O   0  0  0  0  0  0  0  0  0  0  0  0
   30.0331    7.7248    6.1655 H   0  0  0  0  0  0  0  0  0  0  0  0
   30.5482    5.3627    5.1135 O   0  0  0  0  0  0  0  0  0  0  0  0
   31.0322    3.8434    4.9729 P   0  0  0  0  0  0  0  0  0  0  0  0
   30.3789    3.2332    3.7752 O   0  0  0  0  0  0  0  0  0  0  0  0
   32.4857    4.1144    4.6709 O   0  0  0  0  0  0  0  0  0  0  0  0
   30.7957    2.9465    6.1181 O   0  0  0  0  0  0  0  0  0  0  0  0
   32.9532    3.2730    4.5507 H   0  0  0  0  0  0  0  0  0  0  0  0
   31.1316    2.0607    5.9097 H   0  0  0  0  0  0  0  0  0  0  0  0
 31 32  2  0  0  0
 31 33  1  0  0  0
 31 34  1  0  0  0
 31 30  1  0  0  0
 30 26  1  0  0  0
 26 27  2  0  0  0
 26 28  1  0  0  0
 26 25  1  0  0  0
 25 24  1  0  0  0
 24  1  1  0  0  0
  1  2  1  0  0  0
  1  3  1  0  0  0
  2  7  1  0  0  0
  3  4  1  0  0  0
  3  5  1  0  0  0
  5  6  1  0  0  0
  5  7  1  0  0  0
  7 10  1  0  0  0
 10 11  1  0  0  0
 10 20  1  0  0  0
 11 12  2  0  0  0
 12 13  1  0  0  0
 13 14  1  0  0  0
 13 20  2  0  0  0
 14 15  2  0  0  0
 14 16  1  0  0  0
 16 17  1  0  0  0
 17 18  1  0  0  0
 17 19  2  0  0  0
 19 20  1  0  0  0
 33 35  1  0  0  0
 34 36  1  0  0  0
 28 29  1  0  0  0
  4  8  1  0  0  0
  6  9  1  0  0  0
 16 21  1  0  0  0
 18 22  1  0  0  0
 18 23  1  0  0  0
M  END
> <minimizedAffinity>
-6.56668

$$$$
4Q46_GDP_A_501


 36 38  0  0  0  0  0  0  0  0999 V2000
   24.1866    2.6611    5.0939 C   0  0  0  0  0  0  0  0  0  0  0  0
   23.3264    2.2053    4.0340 O   0  0  0  0  0  0  0  0  0  0  0  0
   25.1836    1.5431    5.2953 C   0  0  0  0  0  0  0  0  0  0  0  0
   24.7009    0.7573    6.4370 O   0  0  0  0  0  0  0  0  0  0  0  0
   25.1375    0.7969    3.9177 C   0  0  0  0  0  0  0  0  0  0  0  0
   25.4823   -0.5760    4.0448 O   0  0  0  0  0  0  0  0  0  0  0  0
   23.6079    0.8518    3.6877 C   0  0  0  0  0  0  0  0  0  0  0  0
   23.7836    0.4853    6.2775 H   0  0  0  0  0  0  0  0  0  0  0  0
   24.9147   -0.9915    4.7126 H   0  0  0  0  0  0  0  0  0  0  0  0
   23.2430    0.7300    2.2626 N   0  0  0  0  0  0  0  0  0  0  0  0
   22.9933    1.7119    1.2958 C   0  0  0  0  0  0  0  0  0  0  0  0
   22.6343    1.0567    0.1357 N   0  0  0  0  0  0  0  0  0  0  0  0
   22.6156   -0.2936    0.3837 C   0  0  0  0  0  0  0  0  0  0  0  0
   22.2744   -1.4927   -0.4149 C   0  0  0  0  0  0  0  0  0  0  0  0
   21.9252   -1.3503   -1.6258 O   0  0  0  0  0  0  0  0  0  0  0  0
   22.3410   -2.6886    0.2058 N   0  0  0  0  0  0  0  0  0  0  0  0
   22.7266   -2.8468    1.5142 C   0  0  0  0  0  0  0  0  0  0  0  0
   22.7947   -4.0757    2.0791 N   0  0  0  0  0  0  0  0  0  0  0  0
   23.0668   -1.7687    2.3107 N   0  0  0  0  0  0  0  0  0  0  0  0
   23.0018   -0.4971    1.7599 C   0  0  0  0  0  0  0  0  0  0  0  0
   22.0996   -3.4930   -0.3080 H   0  0  0  0  0  0  0  0  0  0  0  0
   22.5620   -4.8736    1.5514 H   0  0  0  0  0  0  0  0  0  0  0  0
   23.0768   -4.1712    3.0174 H   0  0  0  0  0  0  0  0  0  0  0  0
   24.8404    3.9642    4.5647 C   0  0  0  0  0  0  0  0  0  0  0  0
   26.2584    3.7545    4.6067 O   0  0  0  0  0  0  0  0  0  0  0  0
   27.1959    4.1511    3.3825 P   0  0  0  0  0  0  0  0  0  0  0  0
   26.4846    3.6003    2.1594 O   0  0  0  0  0  0  0  0  0  0  0  0
   27.3016    5.6232    3.4947 O   0  0  0  0  0  0  0  0  0  0  0  0
   27.8627    5.9625    2.7799 H   0  0  0  0  0  0  0  0  0  0  0  0
   28.6161    3.6028    3.6835 O   0  0  0  0  0  0  0  0  0  0  0  0
   29.9539    4.2611    4.2660 P   0  0  0  0  0  0  0  0  0  0  0  0
   30.0589    3.9424    5.7224 O   0  0  0  0  0  0  0  0  0  0  0  0
   30.9490    3.4289    3.4949 O   0  0  0  0  0  0  0  0  0  0  0  0
   30.1164    5.7178    4.1132 O   0  0  0  0  0  0  0  0  0  0  0  0
   31.8496    3.7008    3.7311 H   0  0  0  0  0  0  0  0  0  0  0  0
   30.9609    5.9916    4.5039 H   0  0  0  0  0  0  0  0  0  0  0  0
 31 32  2  0  0  0
 31 33  1  0  0  0
 31 34  1  0  0  0
 31 30  1  0  0  0
 30 26  1  0  0  0
 26 27  2  0  0  0
 26 28  1  0  0  0
 26 25  1  0  0  0
 25 24  1  0  0  0
 24  1  1  0  0  0
  1  2  1  0  0  0
  1  3  1  0  0  0
  2  7  1  0  0  0
  3  4  1  0  0  0
  3  5  1  0  0  0
  5  6  1  0  0  0
  5  7  1  0  0  0
  7 10  1  0  0  0
 10 11  1  0  0  0
 10 20  1  0  0  0
 11 12  2  0  0  0
 12 13  1  0  0  0
 13 14  1  0  0  0
 13 20  2  0  0  0
 14 15  2  0  0  0
 14 16  1  0  0  0
 16 17  1  0  0  0
 17 18  1  0  0  0
 17 19  2  0  0  0
 19 20  1  0  0  0
 33 35  1  0  0  0
 34 36  1  0  0  0
 28 29  1  0  0  0
  4  8  1  0  0  0
  6  9  1  0  0  0
 16 21  1  0  0  0
 18 22  1  0  0  0
 18 23  1  0  0  0
M  END
> <minimizedAffinity>
-6.53703

$$$$
