3DD0_EZL_A_301


 18 19  0  0  0  0  0  0  0  0999 V2000
   -4.3845    1.8231   13.2933 C   0  0  0  0  0  0  0  0  0  0  0  0
   -4.5721    2.8413   14.2288 C   0  0  0  0  0  0  0  0  0  0  0  0
   -4.7326    2.5074   15.5991 C   0  0  0  0  0  0  0  0  0  0  0  0
   -4.6858    1.0871   15.7965 C   0  0  0  0  0  0  0  0  0  0  0  0
   -4.2971    3.6519   12.0295 C   0  0  0  0  0  0  0  0  0  0  0  0
   -4.2783    2.3200   12.0001 N   0  0  0  0  0  0  0  0  0  0  0  0
   -4.5121    4.3478   13.5297 S   0  0  0  0  0  0  0  0  0  0  0  0
   -4.5241    0.0299   14.8919 C   0  0  0  0  0  0  0  0  0  0  0  0
   -4.3708    0.4119   13.5166 C   0  0  0  0  0  0  0  0  0  0  0  0
   -5.5031    5.4429   10.4069 N   0  0  0  0  0  0  0  0  0  0  0  0
   -3.0446    5.5297   10.8413 O   0  0  0  0  0  0  0  0  0  0  0  0
   -3.9227    3.6957    9.5173 O   0  0  0  0  0  0  0  0  0  0  0  0
   -4.1458    4.6593   10.5573 S   0  0  0  0  0  0  0  0  0  0  0  0
   -5.4641    6.0341    9.5766 H   0  0  0  0  0  0  0  0  0  0  0  0
   -5.6533    6.0242   11.2314 H   0  0  0  0  0  0  0  0  0  0  0  0
   -4.7904    0.7088   17.1418 O   0  0  0  0  0  0  0  0  0  0  0  0
   -5.9360    1.1118   17.9994 C   0  0  0  0  0  0  0  0  0  0  0  0
   -7.2686    0.7661   17.3175 C   0  0  0  0  0  0  0  0  0  0  0  0
 10 13  1  0  0  0
  1  2  2  0  0  0
  1  6  1  0  0  0
  1  9  1  0  0  0
  2  3  1  0  0  0
  2  7  1  0  0  0
  3  4  2  0  0  0
  4  8  1  0  0  0
  4 16  1  0  0  0
 17 16  1  0  0  0
 17 18  1  0  0  0
 11 13  2  0  0  0
 12 13  2  0  0  0
 13  5  1  0  0  0
  5  6  2  0  0  0
  5  7  1  0  0  0
  8  9  2  0  0  0
 10 14  1  0  0  0
 10 15  1  0  0  0
M  END
> <minimizedAffinity>
-6.63841

$$$$
3DD0_EZL_A_301


 18 19  0  0  0  0  0  0  0  0999 V2000
   -3.6077    3.5119   15.4511 C   0  0  0  0  0  0  0  0  0  0  0  0
   -4.7946    4.2059   15.2125 C   0  0  0  0  0  0  0  0  0  0  0  0
   -4.7394    5.5057   14.6447 C   0  0  0  0  0  0  0  0  0  0  0  0
   -3.3837    5.9140   14.4127 C   0  0  0  0  0  0  0  0  0  0  0  0
   -5.1516    2.0596   16.1266 C   0  0  0  0  0  0  0  0  0  0  0  0
   -3.8397    2.2740   16.0378 N   0  0  0  0  0  0  0  0  0  0  0  0
   -6.1333    3.3042   15.6084 S   0  0  0  0  0  0  0  0  0  0  0  0
   -2.1656    5.2665   14.6558 C   0  0  0  0  0  0  0  0  0  0  0  0
   -2.2672    3.9570   15.2353 C   0  0  0  0  0  0  0  0  0  0  0  0
   -5.5221    0.5533   18.3376 N   0  0  0  0  0  0  0  0  0  0  0  0
   -7.2511    0.6706   16.5384 O   0  0  0  0  0  0  0  0  0  0  0  0
   -5.1672   -0.4799   16.0687 O   0  0  0  0  0  0  0  0  0  0  0  0
   -5.8476    0.5527   16.7972 S   0  0  0  0  0  0  0  0  0  0  0  0
   -5.9013   -0.2914   18.7656 H   0  0  0  0  0  0  0  0  0  0  0  0
   -5.9430    1.3737   18.7737 H   0  0  0  0  0  0  0  0  0  0  0  0
   -3.2780    7.1730   13.8063 O   0  0  0  0  0  0  0  0  0  0  0  0
   -2.0546    8.0112   13.9107 C   0  0  0  0  0  0  0  0  0  0  0  0
   -2.0598    8.8128   15.2214 C   0  0  0  0  0  0  0  0  0  0  0  0
 10 13  1  0  0  0
  1  2  2  0  0  0
  1  6  1  0  0  0
  1  9  1  0  0  0
  2  3  1  0  0  0
  2  7  1  0  0  0
  3  4  2  0  0  0
  4  8  1  0  0  0
  4 16  1  0  0  0
 17 16  1  0  0  0
 17 18  1  0  0  0
 11 13  2  0  0  0
 12 13  2  0  0  0
 13  5  1  0  0  0
  5  6  2  0  0  0
  5  7  1  0  0  0
  8  9  2  0  0  0
 10 14  1  0  0  0
 10 15  1  0  0  0
M  END
> <minimizedAffinity>
-6.60285

$$$$
3DD0_EZL_A_301


 18 19  0  0  0  0  0  0  0  0999 V2000
   -3.9389    3.5913   15.3462 C   0  0  0  0  0  0  0  0  0  0  0  0
   -5.1618    4.1453   14.9655 C   0  0  0  0  0  0  0  0  0  0  0  0
   -5.1766    5.3337   14.1894 C   0  0  0  0  0  0  0  0  0  0  0  0
   -3.8451    5.7985   13.9258 C   0  0  0  0  0  0  0  0  0  0  0  0
   -5.4016    2.1591   16.2174 C   0  0  0  0  0  0  0  0  0  0  0  0
   -4.1055    2.4536   16.1263 N   0  0  0  0  0  0  0  0  0  0  0  0
   -6.4480    3.2238   15.4739 S   0  0  0  0  0  0  0  0  0  0  0  0
   -2.5946    5.2932   14.3039 C   0  0  0  0  0  0  0  0  0  0  0  0
   -2.6257    4.0937   15.0920 C   0  0  0  0  0  0  0  0  0  0  0  0
   -7.5862    0.7965   17.0334 N   0  0  0  0  0  0  0  0  0  0  0  0
   -5.4773   -0.3839   16.4013 O   0  0  0  0  0  0  0  0  0  0  0  0
   -5.5014    0.9322   18.4395 O   0  0  0  0  0  0  0  0  0  0  0  0
   -6.0149    0.7359   17.1137 S   0  0  0  0  0  0  0  0  0  0  0  0
   -7.9830    0.0007   17.5331 H   0  0  0  0  0  0  0  0  0  0  0  0
   -7.8782    0.7645   16.0566 H   0  0  0  0  0  0  0  0  0  0  0  0
   -3.8053    6.9442   13.1197 O   0  0  0  0  0  0  0  0  0  0  0  0
   -3.9869    6.8915   11.6450 C   0  0  0  0  0  0  0  0  0  0  0  0
   -5.2918    7.5920   11.2366 C   0  0  0  0  0  0  0  0  0  0  0  0
 10 13  1  0  0  0
  1  2  2  0  0  0
  1  6  1  0  0  0
  1  9  1  0  0  0
  2  3  1  0  0  0
  2  7  1  0  0  0
  3  4  2  0  0  0
  4  8  1  0  0  0
  4 16  1  0  0  0
 17 16  1  0  0  0
 17 18  1  0  0  0
 11 13  2  0  0  0
 12 13  2  0  0  0
 13  5  1  0  0  0
  5  6  2  0  0  0
  5  7  1  0  0  0
  8  9  2  0  0  0
 10 14  1  0  0  0
 10 15  1  0  0  0
M  END
> <minimizedAffinity>
-6.35864

$$$$
3DD0_EZL_A_301


 18 19  0  0  0  0  0  0  0  0999 V2000
   -5.5684    4.0402   15.1346 C   0  0  0  0  0  0  0  0  0  0  0  0
   -4.2745    3.5180   15.1213 C   0  0  0  0  0  0  0  0  0  0  0  0
   -3.2622    4.1840   14.3818 C   0  0  0  0  0  0  0  0  0  0  0  0
   -3.7817    5.3465   13.7207 C   0  0  0  0  0  0  0  0  0  0  0  0
   -5.7633    2.2531   16.4453 C   0  0  0  0  0  0  0  0  0  0  0  0
   -6.4387    3.2506   15.8762 N   0  0  0  0  0  0  0  0  0  0  0  0
   -4.1392    2.1651   16.0770 S   0  0  0  0  0  0  0  0  0  0  0  0
   -5.0701    5.8949   13.6848 C   0  0  0  0  0  0  0  0  0  0  0  0
   -6.0638    5.1872   14.4415 C   0  0  0  0  0  0  0  0  0  0  0  0
   -5.6917   -0.2822   17.3739 N   0  0  0  0  0  0  0  0  0  0  0  0
   -6.4371    1.6128   18.8207 O   0  0  0  0  0  0  0  0  0  0  0  0
   -7.8642    0.9294   16.9812 O   0  0  0  0  0  0  0  0  0  0  0  0
   -6.5352    1.0401   17.5119 S   0  0  0  0  0  0  0  0  0  0  0  0
   -6.0959   -1.0068   17.9671 H   0  0  0  0  0  0  0  0  0  0  0  0
   -4.7299   -0.1036   17.6627 H   0  0  0  0  0  0  0  0  0  0  0  0
   -2.8080    6.0672   13.0161 O   0  0  0  0  0  0  0  0  0  0  0  0
   -2.5374    7.5067   13.2713 C   0  0  0  0  0  0  0  0  0  0  0  0
   -2.1766    7.7347   14.7472 C   0  0  0  0  0  0  0  0  0  0  0  0
 10 13  1  0  0  0
  1  2  2  0  0  0
  1  6  1  0  0  0
  1  9  1  0  0  0
  2  3  1  0  0  0
  2  7  1  0  0  0
  3  4  2  0  0  0
  4  8  1  0  0  0
  4 16  1  0  0  0
 17 16  1  0  0  0
 17 18  1  0  0  0
 11 13  2  0  0  0
 12 13  2  0  0  0
 13  5  1  0  0  0
  5  6  2  0  0  0
  5  7  1  0  0  0
  8  9  2  0  0  0
 10 14  1  0  0  0
 10 15  1  0  0  0
M  END
> <minimizedAffinity>
-6.32892

$$$$
3DD0_EZL_A_301


 18 19  0  0  0  0  0  0  0  0999 V2000
   -5.6234    3.8947   14.8759 C   0  0  0  0  0  0  0  0  0  0  0  0
   -4.7788    2.9676   14.2641 C   0  0  0  0  0  0  0  0  0  0  0  0
   -4.0150    3.3607   13.1340 C   0  0  0  0  0  0  0  0  0  0  0  0
   -4.2712    4.7284   12.7842 C   0  0  0  0  0  0  0  0  0  0  0  0
   -5.9111    2.0848   16.1371 C   0  0  0  0  0  0  0  0  0  0  0  0
   -6.3187    3.3381   15.9423 N   0  0  0  0  0  0  0  0  0  0  0  0
   -4.7822    1.5058   15.0547 S   0  0  0  0  0  0  0  0  0  0  0  0
   -5.1223    5.6864   13.3497 C   0  0  0  0  0  0  0  0  0  0  0  0
   -5.8798    5.2454   14.4867 C   0  0  0  0  0  0  0  0  0  0  0  0
   -5.6896   -0.2714   17.4388 N   0  0  0  0  0  0  0  0  0  0  0  0
   -6.3482    1.8197   18.6361 O   0  0  0  0  0  0  0  0  0  0  0  0
   -7.9193    0.8390   17.0687 O   0  0  0  0  0  0  0  0  0  0  0  0
   -6.5508    1.0466   17.4479 S   0  0  0  0  0  0  0  0  0  0  0  0
   -6.0191   -0.8979   18.1732 H   0  0  0  0  0  0  0  0  0  0  0  0
   -4.7104   -0.0389   17.6042 H   0  0  0  0  0  0  0  0  0  0  0  0
   -3.5025    5.1792   11.7027 O   0  0  0  0  0  0  0  0  0  0  0  0
   -2.0306    5.3688   11.7913 C   0  0  0  0  0  0  0  0  0  0  0  0
   -1.3202    4.6174   10.6550 C   0  0  0  0  0  0  0  0  0  0  0  0
 10 13  1  0  0  0
  1  2  2  0  0  0
  1  6  1  0  0  0
  1  9  1  0  0  0
  2  3  1  0  0  0
  2  7  1  0  0  0
  3  4  2  0  0  0
  4  8  1  0  0  0
  4 16  1  0  0  0
 17 16  1  0  0  0
 17 18  1  0  0  0
 11 13  2  0  0  0
 12 13  2  0  0  0
 13  5  1  0  0  0
  5  6  2  0  0  0
  5  7  1  0  0  0
  8  9  2  0  0  0
 10 14  1  0  0  0
 10 15  1  0  0  0
M  END
> <minimizedAffinity>
-6.11708

$$$$
3DD0_EZL_A_301


 18 19  0  0  0  0  0  0  0  0999 V2000
   -3.9164    3.4239   13.9335 C   0  0  0  0  0  0  0  0  0  0  0  0
   -4.4779    2.2438   13.4443 C   0  0  0  0  0  0  0  0  0  0  0  0
   -4.7203    1.1660   14.3357 C   0  0  0  0  0  0  0  0  0  0  0  0
   -4.3054    1.4921   15.6699 C   0  0  0  0  0  0  0  0  0  0  0  0
   -4.2057    3.8927   11.7780 C   0  0  0  0  0  0  0  0  0  0  0  0
   -3.7166    4.3596   12.9259 N   0  0  0  0  0  0  0  0  0  0  0  0
   -4.8315    2.3476   11.8238 S   0  0  0  0  0  0  0  0  0  0  0  0
   -3.7188    2.6472   16.2024 C   0  0  0  0  0  0  0  0  0  0  0  0
   -3.4863    3.7099   15.2657 C   0  0  0  0  0  0  0  0  0  0  0  0
   -3.0834    5.9543   10.4418 N   0  0  0  0  0  0  0  0  0  0  0  0
   -3.7865    3.8677    9.2620 O   0  0  0  0  0  0  0  0  0  0  0  0
   -5.5061    5.3362   10.1415 O   0  0  0  0  0  0  0  0  0  0  0  0
   -4.1681    4.8289   10.2525 S   0  0  0  0  0  0  0  0  0  0  0  0
   -3.0257    6.5171    9.5931 H   0  0  0  0  0  0  0  0  0  0  0  0
   -2.1769    5.5250   10.6274 H   0  0  0  0  0  0  0  0  0  0  0  0
   -4.5698    0.4764   16.5985 O   0  0  0  0  0  0  0  0  0  0  0  0
   -5.9168    0.2652   17.1913 C   0  0  0  0  0  0  0  0  0  0  0  0
   -6.2372    1.3694   18.2104 C   0  0  0  0  0  0  0  0  0  0  0  0
 10 13  1  0  0  0
  1  2  2  0  0  0
  1  6  1  0  0  0
  1  9  1  0  0  0
  2  3  1  0  0  0
  2  7  1  0  0  0
  3  4  2  0  0  0
  4  8  1  0  0  0
  4 16  1  0  0  0
 17 16  1  0  0  0
 17 18  1  0  0  0
 11 13  2  0  0  0
 12 13  2  0  0  0
 13  5  1  0  0  0
  5  6  2  0  0  0
  5  7  1  0  0  0
  8  9  2  0  0  0
 10 14  1  0  0  0
 10 15  1  0  0  0
M  END
> <minimizedAffinity>
-6.02376

$$$$
3DD0_EZL_A_301


 18 19  0  0  0  0  0  0  0  0999 V2000
   -5.3444    4.3876   13.8700 C   0  0  0  0  0  0  0  0  0  0  0  0
   -5.0203    3.0351   13.9836 C   0  0  0  0  0  0  0  0  0  0  0  0
   -5.4825    2.3001   15.1067 C   0  0  0  0  0  0  0  0  0  0  0  0
   -6.2399    3.1326   15.9964 C   0  0  0  0  0  0  0  0  0  0  0  0
   -4.1664    4.0237   12.0182 C   0  0  0  0  0  0  0  0  0  0  0  0
   -4.7870    4.9607   12.7336 N   0  0  0  0  0  0  0  0  0  0  0  0
   -4.1501    2.4914   12.6764 S   0  0  0  0  0  0  0  0  0  0  0  0
   -6.5704    4.4925   15.9379 C   0  0  0  0  0  0  0  0  0  0  0  0
   -6.0787    5.1988   14.7889 C   0  0  0  0  0  0  0  0  0  0  0  0
   -3.4602    5.9224   10.2318 N   0  0  0  0  0  0  0  0  0  0  0  0
   -2.0024    3.9418   10.6702 O   0  0  0  0  0  0  0  0  0  0  0  0
   -4.1079    3.5970    9.5147 O   0  0  0  0  0  0  0  0  0  0  0  0
   -3.3533    4.3684   10.4609 S   0  0  0  0  0  0  0  0  0  0  0  0
   -3.0080    6.1682    9.3512 H   0  0  0  0  0  0  0  0  0  0  0  0
   -2.9991    6.4117   10.9989 H   0  0  0  0  0  0  0  0  0  0  0  0
   -6.7606    2.4402   17.0979 O   0  0  0  0  0  0  0  0  0  0  0  0
   -7.1908    1.0192   17.0191 C   0  0  0  0  0  0  0  0  0  0  0  0
   -6.1715    0.1071   17.7187 C   0  0  0  0  0  0  0  0  0  0  0  0
 10 13  1  0  0  0
  1  2  2  0  0  0
  1  6  1  0  0  0
  1  9  1  0  0  0
  2  3  1  0  0  0
  2  7  1  0  0  0
  3  4  2  0  0  0
  4  8  1  0  0  0
  4 16  1  0  0  0
 17 16  1  0  0  0
 17 18  1  0  0  0
 11 13  2  0  0  0
 12 13  2  0  0  0
 13  5  1  0  0  0
  5  6  2  0  0  0
  5  7  1  0  0  0
  8  9  2  0  0  0
 10 14  1  0  0  0
 10 15  1  0  0  0
M  END
> <minimizedAffinity>
-5.82609

$$$$
3DD0_EZL_A_301


 18 19  0  0  0  0  0  0  0  0999 V2000
   -4.4190    3.3990   12.6620 C   0  0  0  0  0  0  0  0  0  0  0  0
   -4.7889    4.4035   13.5571 C   0  0  0  0  0  0  0  0  0  0  0  0
   -4.9497    5.7325   13.0850 C   0  0  0  0  0  0  0  0  0  0  0  0
   -4.6716    5.8220   11.6804 C   0  0  0  0  0  0  0  0  0  0  0  0
   -4.6200    2.2809   14.5748 C   0  0  0  0  0  0  0  0  0  0  0  0
   -4.2741    2.1696   13.2930 N   0  0  0  0  0  0  0  0  0  0  0  0
   -5.0427    3.8101   15.0886 S   0  0  0  0  0  0  0  0  0  0  0  0
   -4.2763    4.8527   10.7497 C   0  0  0  0  0  0  0  0  0  0  0  0
   -4.1204    3.5239   11.2703 C   0  0  0  0  0  0  0  0  0  0  0  0
   -4.4353   -0.4010   14.8361 N   0  0  0  0  0  0  0  0  0  0  0  0
   -3.4596    1.1427   16.5406 O   0  0  0  0  0  0  0  0  0  0  0  0
   -5.8747    0.9882   16.3658 O   0  0  0  0  0  0  0  0  0  0  0  0
   -4.6008    0.8975   15.7110 S   0  0  0  0  0  0  0  0  0  0  0  0
   -4.4190   -1.2203   15.4435 H   0  0  0  0  0  0  0  0  0  0  0  0
   -3.5619   -0.3488   14.3119 H   0  0  0  0  0  0  0  0  0  0  0  0
   -4.8647    7.1071   11.1560 O   0  0  0  0  0  0  0  0  0  0  0  0
   -5.7925    7.3793   10.0266 C   0  0  0  0  0  0  0  0  0  0  0  0
   -7.1138    7.9686   10.5436 C   0  0  0  0  0  0  0  0  0  0  0  0
 10 13  1  0  0  0
  1  2  2  0  0  0
  1  6  1  0  0  0
  1  9  1  0  0  0
  2  3  1  0  0  0
  2  7  1  0  0  0
  3  4  2  0  0  0
  4  8  1  0  0  0
  4 16  1  0  0  0
 17 16  1  0  0  0
 17 18  1  0  0  0
 11 13  2  0  0  0
 12 13  2  0  0  0
 13  5  1  0  0  0
  5  6  2  0  0  0
  5  7  1  0  0  0
  8  9  2  0  0  0
 10 14  1  0  0  0
 10 15  1  0  0  0
M  END
> <minimizedAffinity>
-5.71943

$$$$
3DD0_EZL_A_301


 18 19  0  0  0  0  0  0  0  0999 V2000
   -3.8475    4.7571   14.2785 C   0  0  0  0  0  0  0  0  0  0  0  0
   -4.3295    4.3315   13.0401 C   0  0  0  0  0  0  0  0  0  0  0  0
   -4.3740    5.2485   11.9574 C   0  0  0  0  0  0  0  0  0  0  0  0
   -3.8985    6.5429   12.3533 C   0  0  0  0  0  0  0  0  0  0  0  0
   -4.3245    2.6185   14.6634 C   0  0  0  0  0  0  0  0  0  0  0  0
   -3.9036    3.7476   15.2316 N   0  0  0  0  0  0  0  0  0  0  0  0
   -4.7319    2.7191   13.0494 S   0  0  0  0  0  0  0  0  0  0  0  0
   -3.4293    7.0224   13.5829 C   0  0  0  0  0  0  0  0  0  0  0  0
   -3.4061    6.0639   14.6514 C   0  0  0  0  0  0  0  0  0  0  0  0
   -5.9442    1.0734   16.1748 N   0  0  0  0  0  0  0  0  0  0  0  0
   -4.3191    0.0696   14.5650 O   0  0  0  0  0  0  0  0  0  0  0  0
   -3.4561    1.1599   16.5533 O   0  0  0  0  0  0  0  0  0  0  0  0
   -4.4930    1.0805   15.5641 S   0  0  0  0  0  0  0  0  0  0  0  0
   -6.0878    0.2111   16.7003 H   0  0  0  0  0  0  0  0  0  0  0  0
   -6.6301    1.1310   15.4220 H   0  0  0  0  0  0  0  0  0  0  0  0
   -3.8764    7.4720   11.3044 O   0  0  0  0  0  0  0  0  0  0  0  0
   -4.9490    7.5447   10.2774 C   0  0  0  0  0  0  0  0  0  0  0  0
   -6.1777    8.2820   10.8315 C   0  0  0  0  0  0  0  0  0  0  0  0
 10 13  1  0  0  0
  1  2  2  0  0  0
  1  6  1  0  0  0
  1  9  1  0  0  0
  2  3  1  0  0  0
  2  7  1  0  0  0
  3  4  2  0  0  0
  4  8  1  0  0  0
  4 16  1  0  0  0
 17 16  1  0  0  0
 17 18  1  0  0  0
 11 13  2  0  0  0
 12 13  2  0  0  0
 13  5  1  0  0  0
  5  6  2  0  0  0
  5  7  1  0  0  0
  8  9  2  0  0  0
 10 14  1  0  0  0
 10 15  1  0  0  0
M  END
> <minimizedAffinity>
-5.51062

$$$$
3DD0_EZL_A_301


 18 19  0  0  0  0  0  0  0  0999 V2000
   -3.7592    4.7866   14.4018 C   0  0  0  0  0  0  0  0  0  0  0  0
   -4.2229    4.4180   13.1383 C   0  0  0  0  0  0  0  0  0  0  0  0
   -4.2187    5.3738   12.0887 C   0  0  0  0  0  0  0  0  0  0  0  0
   -3.7198    6.6404   12.5416 C   0  0  0  0  0  0  0  0  0  0  0  0
   -4.2994    2.6489   14.6983 C   0  0  0  0  0  0  0  0  0  0  0  0
   -3.8633    3.7457   15.3163 N   0  0  0  0  0  0  0  0  0  0  0  0
   -4.6664    2.8175   13.0803 S   0  0  0  0  0  0  0  0  0  0  0  0
   -3.2674    7.0634   13.7979 C   0  0  0  0  0  0  0  0  0  0  0  0
   -3.2936    6.0673   14.8314 C   0  0  0  0  0  0  0  0  0  0  0  0
   -4.3316   -0.0409   14.4560 N   0  0  0  0  0  0  0  0  0  0  0  0
   -3.4972    1.0685   16.5328 O   0  0  0  0  0  0  0  0  0  0  0  0
   -5.8706    1.1702   16.0391 O   0  0  0  0  0  0  0  0  0  0  0  0
   -4.5281    1.0849   15.5390 S   0  0  0  0  0  0  0  0  0  0  0  0
   -4.4531   -0.9557   14.8906 H   0  0  0  0  0  0  0  0  0  0  0  0
   -3.3932    0.0263   14.0620 H   0  0  0  0  0  0  0  0  0  0  0  0
   -3.6496    7.6052   11.5277 O   0  0  0  0  0  0  0  0  0  0  0  0
   -2.3791    8.2794   11.1514 C   0  0  0  0  0  0  0  0  0  0  0  0
   -1.3721    7.2613   10.5950 C   0  0  0  0  0  0  0  0  0  0  0  0
 10 13  1  0  0  0
  1  2  2  0  0  0
  1  6  1  0  0  0
  1  9  1  0  0  0
  2  3  1  0  0  0
  2  7  1  0  0  0
  3  4  2  0  0  0
  4  8  1  0  0  0
  4 16  1  0  0  0
 17 16  1  0  0  0
 17 18  1  0  0  0
 11 13  2  0  0  0
 12 13  2  0  0  0
 13  5  1  0  0  0
  5  6  2  0  0  0
  5  7  1  0  0  0
  8  9  2  0  0  0
 10 14  1  0  0  0
 10 15  1  0  0  0
M  END
> <minimizedAffinity>
-5.33057

$$$$
