1UI0_URA_A_211


 10 10  0  0  0  0  0  0  0  0999 V2000
   23.2491    9.9340   10.4604 N   0  0  0  0  0  0  0  0  0  0  0  0
   22.4107    8.8779   10.1046 C   0  0  0  0  0  0  0  0  0  0  0  0
   22.0473    8.6275    8.9648 O   0  0  0  0  0  0  0  0  0  0  0  0
   22.0001    8.0952   11.1524 N   0  0  0  0  0  0  0  0  0  0  0  0
   22.3125    8.2259   12.4994 C   0  0  0  0  0  0  0  0  0  0  0  0
   21.9241    7.4958   13.4166 O   0  0  0  0  0  0  0  0  0  0  0  0
   23.1893    9.3566   12.7718 C   0  0  0  0  0  0  0  0  0  0  0  0
   23.6194   10.1535   11.7752 C   0  0  0  0  0  0  0  0  0  0  0  0
   23.5856   10.5376    9.7592 H   0  0  0  0  0  0  0  0  0  0  0  0
   21.4077    7.3439   10.9203 H   0  0  0  0  0  0  0  0  0  0  0  0
  1  2  1  0  0  0
  1  8  1  0  0  0
  2  3  2  0  0  0
  2  4  1  0  0  0
  4  5  1  0  0  0
  5  6  2  0  0  0
  5  7  1  0  0  0
  7  8  2  0  0  0
  1  9  1  0  0  0
  4 10  1  0  0  0
M  END
> <minimizedAffinity>
-5.40848

$$$$
1UI0_URA_A_211


 10 10  0  0  0  0  0  0  0  0999 V2000
   22.1992    8.3231   11.1818 N   0  0  0  0  0  0  0  0  0  0  0  0
   22.3229    8.2873   12.5704 C   0  0  0  0  0  0  0  0  0  0  0  0
   21.8875    7.3989   13.2881 O   0  0  0  0  0  0  0  0  0  0  0  0
   22.9959    9.3513   13.1126 N   0  0  0  0  0  0  0  0  0  0  0  0
   23.5576   10.4396   12.4576 C   0  0  0  0  0  0  0  0  0  0  0  0
   24.1613   11.3803   12.9828 O   0  0  0  0  0  0  0  0  0  0  0  0
   23.3749   10.3892   11.0134 C   0  0  0  0  0  0  0  0  0  0  0  0
   22.7213    9.3640   10.4347 C   0  0  0  0  0  0  0  0  0  0  0  0
   21.7292    7.5902   10.7221 H   0  0  0  0  0  0  0  0  0  0  0  0
   23.0936    9.3430   14.0922 H   0  0  0  0  0  0  0  0  0  0  0  0
  1  2  1  0  0  0
  1  8  1  0  0  0
  2  3  2  0  0  0
  2  4  1  0  0  0
  4  5  1  0  0  0
  5  6  2  0  0  0
  5  7  1  0  0  0
  7  8  2  0  0  0
  1  9  1  0  0  0
  4 10  1  0  0  0
M  END
> <minimizedAffinity>
-5.31570

$$$$
1UI0_URA_A_211


 10 10  0  0  0  0  0  0  0  0999 V2000
   23.0943    9.3893   12.9455 N   0  0  0  0  0  0  0  0  0  0  0  0
   22.3496    8.2546   12.6253 C   0  0  0  0  0  0  0  0  0  0  0  0
   21.9349    7.4391   13.4358 O   0  0  0  0  0  0  0  0  0  0  0  0
   22.0912    8.0982   11.2881 N   0  0  0  0  0  0  0  0  0  0  0  0
   22.4753    8.9181   10.2349 C   0  0  0  0  0  0  0  0  0  0  0  0
   22.2193    8.7447    9.0393 O   0  0  0  0  0  0  0  0  0  0  0  0
   23.2496   10.0733   10.6679 C   0  0  0  0  0  0  0  0  0  0  0  0
   23.5282   10.2699   11.9706 C   0  0  0  0  0  0  0  0  0  0  0  0
   23.3166    9.5681   13.8878 H   0  0  0  0  0  0  0  0  0  0  0  0
   21.5658    7.3026   11.0429 H   0  0  0  0  0  0  0  0  0  0  0  0
  1  2  1  0  0  0
  1  8  1  0  0  0
  2  3  2  0  0  0
  2  4  1  0  0  0
  4  5  1  0  0  0
  5  6  2  0  0  0
  5  7  1  0  0  0
  7  8  2  0  0  0
  1  9  1  0  0  0
  4 10  1  0  0  0
M  END
> <minimizedAffinity>
-5.28860

$$$$
1UI0_URA_A_211


 10 10  0  0  0  0  0  0  0  0999 V2000
   24.3186    9.7549   11.1985 N   0  0  0  0  0  0  0  0  0  0  0  0
   23.3321    9.6506   12.1787 C   0  0  0  0  0  0  0  0  0  0  0  0
   22.4846    8.7712   12.2265 O   0  0  0  0  0  0  0  0  0  0  0  0
   23.3692   10.6325   13.1346 N   0  0  0  0  0  0  0  0  0  0  0  0
   24.2537   11.6980   13.2412 C   0  0  0  0  0  0  0  0  0  0  0  0
   24.2568   12.5633   14.1223 O   0  0  0  0  0  0  0  0  0  0  0  0
   25.2432   11.7236   12.1727 C   0  0  0  0  0  0  0  0  0  0  0  0
   25.2473   10.7803   11.2117 C   0  0  0  0  0  0  0  0  0  0  0  0
   24.3550    9.0828   10.4800 H   0  0  0  0  0  0  0  0  0  0  0  0
   22.6804   10.5749   13.8356 H   0  0  0  0  0  0  0  0  0  0  0  0
  1  2  1  0  0  0
  1  8  1  0  0  0
  2  3  2  0  0  0
  2  4  1  0  0  0
  4  5  1  0  0  0
  5  6  2  0  0  0
  5  7  1  0  0  0
  7  8  2  0  0  0
  1  9  1  0  0  0
  4 10  1  0  0  0
M  END
> <minimizedAffinity>
-4.80541

$$$$
1UI0_URA_A_211


 10 10  0  0  0  0  0  0  0  0999 V2000
   21.9994    8.1412   11.3635 N   0  0  0  0  0  0  0  0  0  0  0  0
   22.3198    8.8313   10.1948 C   0  0  0  0  0  0  0  0  0  0  0  0
   21.8739    8.5734    9.0864 O   0  0  0  0  0  0  0  0  0  0  0  0
   23.2009    9.8675   10.3653 N   0  0  0  0  0  0  0  0  0  0  0  0
   23.8013   10.3033   11.5395 C   0  0  0  0  0  0  0  0  0  0  0  0
   24.5902   11.2466   11.6537 O   0  0  0  0  0  0  0  0  0  0  0  0
   23.4076    9.5204   12.7030 C   0  0  0  0  0  0  0  0  0  0  0  0
   22.5445    8.4936   12.5853 C   0  0  0  0  0  0  0  0  0  0  0  0
   21.3703    7.3853   11.3181 H   0  0  0  0  0  0  0  0  0  0  0  0
   23.4386   10.3670    9.5509 H   0  0  0  0  0  0  0  0  0  0  0  0
  1  2  1  0  0  0
  1  8  1  0  0  0
  2  3  2  0  0  0
  2  4  1  0  0  0
  4  5  1  0  0  0
  5  6  2  0  0  0
  5  7  1  0  0  0
  7  8  2  0  0  0
  1  9  1  0  0  0
  4 10  1  0  0  0
M  END
> <minimizedAffinity>
-4.75545

$$$$
1UI0_URA_A_211


 10 10  0  0  0  0  0  0  0  0999 V2000
   27.3554    8.9994    8.9210 N   0  0  0  0  0  0  0  0  0  0  0  0
   26.8674    8.1853    7.8993 C   0  0  0  0  0  0  0  0  0  0  0  0
   27.4475    7.2100    7.4455 O   0  0  0  0  0  0  0  0  0  0  0  0
   25.6402    8.5531    7.4114 N   0  0  0  0  0  0  0  0  0  0  0  0
   24.8410    9.6188    7.8045 C   0  0  0  0  0  0  0  0  0  0  0  0
   23.7357    9.9167    7.3412 O   0  0  0  0  0  0  0  0  0  0  0  0
   25.4355   10.4106    8.8727 C   0  0  0  0  0  0  0  0  0  0  0  0
   26.6385   10.0881    9.3847 C   0  0  0  0  0  0  0  0  0  0  0  0
   28.2309    8.7945    9.3219 H   0  0  0  0  0  0  0  0  0  0  0  0
   25.2790    7.9893    6.6896 H   0  0  0  0  0  0  0  0  0  0  0  0
  1  2  1  0  0  0
  1  8  1  0  0  0
  2  3  2  0  0  0
  2  4  1  0  0  0
  4  5  1  0  0  0
  5  6  2  0  0  0
  5  7  1  0  0  0
  7  8  2  0  0  0
  1  9  1  0  0  0
  4 10  1  0  0  0
M  END
> <minimizedAffinity>
-4.74159

$$$$
1UI0_URA_A_211


 10 10  0  0  0  0  0  0  0  0999 V2000
   26.5625   11.8264   11.4609 N   0  0  0  0  0  0  0  0  0  0  0  0
   25.4981   10.9478   11.6609 C   0  0  0  0  0  0  0  0  0  0  0  0
   25.2538    9.9753   10.9620 O   0  0  0  0  0  0  0  0  0  0  0  0
   24.7052   11.2455   12.7388 N   0  0  0  0  0  0  0  0  0  0  0  0
   24.8321   12.2970   13.6373 C   0  0  0  0  0  0  0  0  0  0  0  0
   24.0967   12.5307   14.6015 O   0  0  0  0  0  0  0  0  0  0  0  0
   25.9688   13.1595   13.3449 C   0  0  0  0  0  0  0  0  0  0  0  0
   26.7766   12.9072   12.2975 C   0  0  0  0  0  0  0  0  0  0  0  0
   27.1761   11.6739   10.7063 H   0  0  0  0  0  0  0  0  0  0  0  0
   23.9486   10.6356   12.8963 H   0  0  0  0  0  0  0  0  0  0  0  0
  1  2  1  0  0  0
  1  8  1  0  0  0
  2  3  2  0  0  0
  2  4  1  0  0  0
  4  5  1  0  0  0
  5  6  2  0  0  0
  5  7  1  0  0  0
  7  8  2  0  0  0
  1  9  1  0  0  0
  4 10  1  0  0  0
M  END
> <minimizedAffinity>
-4.49156

$$$$
1UI0_URA_A_211


 10 10  0  0  0  0  0  0  0  0999 V2000
   25.3644   11.0062   10.7308 N   0  0  0  0  0  0  0  0  0  0  0  0
   24.8706   10.5657   11.9583 C   0  0  0  0  0  0  0  0  0  0  0  0
   24.3296    9.4861   12.1472 O   0  0  0  0  0  0  0  0  0  0  0  0
   25.0374   11.4497   12.9927 N   0  0  0  0  0  0  0  0  0  0  0  0
   25.6269   12.7070   12.9648 C   0  0  0  0  0  0  0  0  0  0  0  0
   25.7618   13.4752   13.9223 O   0  0  0  0  0  0  0  0  0  0  0  0
   26.1083   13.0791   11.6415 C   0  0  0  0  0  0  0  0  0  0  0  0
   25.9678   12.2437   10.5947 C   0  0  0  0  0  0  0  0  0  0  0  0
   25.2817   10.4226    9.9422 H   0  0  0  0  0  0  0  0  0  0  0  0
   24.6953   11.1556   13.8678 H   0  0  0  0  0  0  0  0  0  0  0  0
  1  2  1  0  0  0
  1  8  1  0  0  0
  2  3  2  0  0  0
  2  4  1  0  0  0
  4  5  1  0  0  0
  5  6  2  0  0  0
  5  7  1  0  0  0
  7  8  2  0  0  0
  1  9  1  0  0  0
  4 10  1  0  0  0
M  END
> <minimizedAffinity>
-4.47239

$$$$
1UI0_URA_A_211


 10 10  0  0  0  0  0  0  0  0999 V2000
   26.0273   12.2445   11.8939 N   0  0  0  0  0  0  0  0  0  0  0  0
   25.2890   12.3609   13.0712 C   0  0  0  0  0  0  0  0  0  0  0  0
   25.4736   13.2099   13.9308 O   0  0  0  0  0  0  0  0  0  0  0  0
   24.2936   11.4296   13.2169 N   0  0  0  0  0  0  0  0  0  0  0  0
   23.9401   10.4038   12.3498 C   0  0  0  0  0  0  0  0  0  0  0  0
   23.0315    9.5839   12.5154 O   0  0  0  0  0  0  0  0  0  0  0  0
   24.7683   10.3617   11.1525 C   0  0  0  0  0  0  0  0  0  0  0  0
   25.7576   11.2557   10.9645 C   0  0  0  0  0  0  0  0  0  0  0  0
   26.7580   12.8810   11.7199 H   0  0  0  0  0  0  0  0  0  0  0  0
   23.7610   11.4965   14.0422 H   0  0  0  0  0  0  0  0  0  0  0  0
  1  2  1  0  0  0
  1  8  1  0  0  0
  2  3  2  0  0  0
  2  4  1  0  0  0
  4  5  1  0  0  0
  5  6  2  0  0  0
  5  7  1  0  0  0
  7  8  2  0  0  0
  1  9  1  0  0  0
  4 10  1  0  0  0
M  END
> <minimizedAffinity>
-4.45870

$$$$
1UI0_URA_A_211


 10 10  0  0  0  0  0  0  0  0999 V2000
   26.7146    9.5414    6.8220 N   0  0  0  0  0  0  0  0  0  0  0  0
   26.8831    8.4906    7.7232 C   0  0  0  0  0  0  0  0  0  0  0  0
   27.3235    7.3872    7.4358 O   0  0  0  0  0  0  0  0  0  0  0  0
   26.5147    8.7774    9.0121 N   0  0  0  0  0  0  0  0  0  0  0  0
   26.0033    9.9657    9.5177 C   0  0  0  0  0  0  0  0  0  0  0  0
   25.6853   10.1872   10.6902 O   0  0  0  0  0  0  0  0  0  0  0  0
   25.8613   11.0002    8.5023 C   0  0  0  0  0  0  0  0  0  0  0  0
   26.2104   10.7658    7.2231 C   0  0  0  0  0  0  0  0  0  0  0  0
   26.9603    9.4088    5.8779 H   0  0  0  0  0  0  0  0  0  0  0  0
   26.6272    8.0474    9.6630 H   0  0  0  0  0  0  0  0  0  0  0  0
  1  2  1  0  0  0
  1  8  1  0  0  0
  2  3  2  0  0  0
  2  4  1  0  0  0
  4  5  1  0  0  0
  5  6  2  0  0  0
  5  7  1  0  0  0
  7  8  2  0  0  0
  1  9  1  0  0  0
  4 10  1  0  0  0
M  END
> <minimizedAffinity>
-4.45214

$$$$
