5NN5_NOJ_A_1016


 16 16  0  0  0  0  0  0  0  0999 V2000
  -13.5793  -32.8427   94.9700 C   0  0  0  0  0  0  0  0  0  0  0  0
  -12.4265  -31.8979   95.3247 C   0  0  0  0  0  0  0  0  0  0  0  0
  -11.2372  -32.4593   94.7888 O   0  0  0  0  0  0  0  0  0  0  0  0
  -12.3226  -31.7184   96.8426 C   0  0  0  0  0  0  0  0  0  0  0  0
  -11.2490  -30.8119   97.1398 O   0  0  0  0  0  0  0  0  0  0  0  0
  -13.6277  -31.1545   97.3841 C   0  0  0  0  0  0  0  0  0  0  0  0
  -13.5359  -31.0257   98.8020 O   0  0  0  0  0  0  0  0  0  0  0  0
  -14.8092  -32.0426   97.0147 C   0  0  0  0  0  0  0  0  0  0  0  0
  -14.7748  -32.3261   95.5907 N   0  0  0  0  0  0  0  0  0  0  0  0
  -11.0949  -33.3397   95.1703 H   0  0  0  0  0  0  0  0  0  0  0  0
  -11.4253  -29.9541   96.7228 H   0  0  0  0  0  0  0  0  0  0  0  0
  -13.3879  -31.8992   99.1971 H   0  0  0  0  0  0  0  0  0  0  0  0
  -15.5132  -33.0065   95.4115 H   0  0  0  0  0  0  0  0  0  0  0  0
  -16.1569  -31.4318   97.4099 C   0  0  0  0  0  0  0  0  0  0  0  0
  -16.4975  -30.3480   96.5431 O   0  0  0  0  0  0  0  0  0  0  0  0
  -15.8199  -29.6570   96.6079 H   0  0  0  0  0  0  0  0  0  0  0  0
  1  2  1  0  0  0
  1  9  1  0  0  0
  2  3  1  0  0  0
  2  4  1  0  0  0
  4  5  1  0  0  0
  4  6  1  0  0  0
  6  7  1  0  0  0
  6  8  1  0  0  0
  8  9  1  0  0  0
  8 14  1  0  0  0
 14 15  1  0  0  0
  3 10  1  0  0  0
  5 11  1  0  0  0
  7 12  1  0  0  0
  9 13  1  0  0  0
 15 16  1  0  0  0
M  END
> <minimizedAffinity>
-6.44061

$$$$
5NN5_NOJ_A_1016


 16 16  0  0  0  0  0  0  0  0999 V2000
  -15.2450  -31.5344   97.2933 C   0  0  0  0  0  0  0  0  0  0  0  0
  -13.7580  -31.5638   97.6614 C   0  0  0  0  0  0  0  0  0  0  0  0
  -13.4025  -30.2598   98.0968 O   0  0  0  0  0  0  0  0  0  0  0  0
  -12.9127  -31.9995   96.4602 C   0  0  0  0  0  0  0  0  0  0  0  0
  -11.5292  -32.0381   96.8440 O   0  0  0  0  0  0  0  0  0  0  0  0
  -13.3501  -33.3814   95.9980 C   0  0  0  0  0  0  0  0  0  0  0  0
  -12.5839  -33.7635   94.8567 O   0  0  0  0  0  0  0  0  0  0  0  0
  -14.8361  -33.4079   95.6634 C   0  0  0  0  0  0  0  0  0  0  0  0
  -15.5899  -32.8309   96.7626 N   0  0  0  0  0  0  0  0  0  0  0  0
  -13.5716  -29.6237   97.3843 H   0  0  0  0  0  0  0  0  0  0  0  0
  -11.4125  -32.6710   97.5697 H   0  0  0  0  0  0  0  0  0  0  0  0
  -12.7392  -33.1321   94.1368 H   0  0  0  0  0  0  0  0  0  0  0  0
  -16.5589  -32.7692   96.4503 H   0  0  0  0  0  0  0  0  0  0  0  0
  -15.3465  -34.8153   95.3405 C   0  0  0  0  0  0  0  0  0  0  0  0
  -14.3319  -35.7919   95.5828 O   0  0  0  0  0  0  0  0  0  0  0  0
  -13.5656  -35.6092   95.0169 H   0  0  0  0  0  0  0  0  0  0  0  0
  1  2  1  0  0  0
  1  9  1  0  0  0
  2  3  1  0  0  0
  2  4  1  0  0  0
  4  5  1  0  0  0
  4  6  1  0  0  0
  6  7  1  0  0  0
  6  8  1  0  0  0
  8  9  1  0  0  0
  8 14  1  0  0  0
 14 15  1  0  0  0
  3 10  1  0  0  0
  5 11  1  0  0  0
  7 12  1  0  0  0
  9 13  1  0  0  0
 15 16  1  0  0  0
M  END
> <minimizedAffinity>
-5.85807

$$$$
5NN5_NOJ_A_1016


 16 16  0  0  0  0  0  0  0  0999 V2000
  -14.1949  -31.6003   98.1173 C   0  0  0  0  0  0  0  0  0  0  0  0
  -14.7900  -31.7610   96.7146 C   0  0  0  0  0  0  0  0  0  0  0  0
  -16.0437  -32.4125   96.8573 O   0  0  0  0  0  0  0  0  0  0  0  0
  -13.8445  -32.5638   95.8154 C   0  0  0  0  0  0  0  0  0  0  0  0
  -14.4203  -32.6773   94.5045 O   0  0  0  0  0  0  0  0  0  0  0  0
  -12.5011  -31.8562   95.7203 C   0  0  0  0  0  0  0  0  0  0  0  0
  -11.6149  -32.6290   94.9122 O   0  0  0  0  0  0  0  0  0  0  0  0
  -11.8934  -31.6358   97.0998 C   0  0  0  0  0  0  0  0  0  0  0  0
  -12.8807  -31.0233   97.9712 N   0  0  0  0  0  0  0  0  0  0  0  0
  -15.9132  -33.2756   97.2804 H   0  0  0  0  0  0  0  0  0  0  0  0
  -14.5500  -31.7917   94.1306 H   0  0  0  0  0  0  0  0  0  0  0  0
  -11.4794  -33.4981   95.3210 H   0  0  0  0  0  0  0  0  0  0  0  0
  -12.4691  -30.9969   98.9041 H   0  0  0  0  0  0  0  0  0  0  0  0
  -10.6155  -30.7928   97.0574 C   0  0  0  0  0  0  0  0  0  0  0  0
   -9.4574  -31.6176   97.1998 O   0  0  0  0  0  0  0  0  0  0  0  0
   -9.4905  -32.0767   98.0536 H   0  0  0  0  0  0  0  0  0  0  0  0
  1  2  1  0  0  0
  1  9  1  0  0  0
  2  3  1  0  0  0
  2  4  1  0  0  0
  4  5  1  0  0  0
  4  6  1  0  0  0
  6  7  1  0  0  0
  6  8  1  0  0  0
  8  9  1  0  0  0
  8 14  1  0  0  0
 14 15  1  0  0  0
  3 10  1  0  0  0
  5 11  1  0  0  0
  7 12  1  0  0  0
  9 13  1  0  0  0
 15 16  1  0  0  0
M  END
> <minimizedAffinity>
-5.81870

$$$$
5NN5_NOJ_A_1016


 16 16  0  0  0  0  0  0  0  0999 V2000
  -12.2250  -32.0710   96.3559 C   0  0  0  0  0  0  0  0  0  0  0  0
  -13.3595  -31.1900   96.8893 C   0  0  0  0  0  0  0  0  0  0  0  0
  -12.8116  -30.3594   97.9024 O   0  0  0  0  0  0  0  0  0  0  0  0
  -14.5025  -32.0525   97.4341 C   0  0  0  0  0  0  0  0  0  0  0  0
  -15.5570  -31.1986   97.9050 O   0  0  0  0  0  0  0  0  0  0  0  0
  -15.0350  -32.9562   96.3322 C   0  0  0  0  0  0  0  0  0  0  0  0
  -16.0732  -33.7820   96.8572 O   0  0  0  0  0  0  0  0  0  0  0  0
  -13.9274  -33.8198   95.7419 C   0  0  0  0  0  0  0  0  0  0  0  0
  -12.7944  -32.9812   95.3922 N   0  0  0  0  0  0  0  0  0  0  0  0
  -12.4398  -30.9120   98.6076 H   0  0  0  0  0  0  0  0  0  0  0  0
  -15.8828  -30.6530   97.1722 H   0  0  0  0  0  0  0  0  0  0  0  0
  -15.7164  -34.3371   97.5682 H   0  0  0  0  0  0  0  0  0  0  0  0
  -12.0438  -33.6102   95.1070 H   0  0  0  0  0  0  0  0  0  0  0  0
  -14.3911  -34.6319   94.5290 C   0  0  0  0  0  0  0  0  0  0  0  0
  -13.3487  -35.4920   94.0646 O   0  0  0  0  0  0  0  0  0  0  0  0
  -12.5836  -34.9583   93.7986 H   0  0  0  0  0  0  0  0  0  0  0  0
  1  2  1  0  0  0
  1  9  1  0  0  0
  2  3  1  0  0  0
  2  4  1  0  0  0
  4  5  1  0  0  0
  4  6  1  0  0  0
  6  7  1  0  0  0
  6  8  1  0  0  0
  8  9  1  0  0  0
  8 14  1  0  0  0
 14 15  1  0  0  0
  3 10  1  0  0  0
  5 11  1  0  0  0
  7 12  1  0  0  0
  9 13  1  0  0  0
 15 16  1  0  0  0
M  END
> <minimizedAffinity>
-5.43312

$$$$
5NN5_NOJ_A_1016


 16 16  0  0  0  0  0  0  0  0999 V2000
  -13.0300  -30.4020   97.0510 C   0  0  0  0  0  0  0  0  0  0  0  0
  -12.6734  -31.8701   97.3067 C   0  0  0  0  0  0  0  0  0  0  0  0
  -11.2619  -31.9880   97.2055 O   0  0  0  0  0  0  0  0  0  0  0  0
  -13.3820  -32.7814   96.2995 C   0  0  0  0  0  0  0  0  0  0  0  0
  -13.0450  -34.1491   96.5798 O   0  0  0  0  0  0  0  0  0  0  0  0
  -14.8881  -32.5968   96.4099 C   0  0  0  0  0  0  0  0  0  0  0  0
  -15.5384  -33.4206   95.4435 O   0  0  0  0  0  0  0  0  0  0  0  0
  -15.2829  -31.1395   96.2059 C   0  0  0  0  0  0  0  0  0  0  0  0
  -14.4686  -30.2934   97.0605 N   0  0  0  0  0  0  0  0  0  0  0  0
  -10.9769  -31.7102   96.3209 H   0  0  0  0  0  0  0  0  0  0  0  0
  -13.3308  -34.3748   97.4788 H   0  0  0  0  0  0  0  0  0  0  0  0
  -15.2581  -33.1572   94.5530 H   0  0  0  0  0  0  0  0  0  0  0  0
  -14.6894  -29.3294   96.8110 H   0  0  0  0  0  0  0  0  0  0  0  0
  -16.7720  -30.8873   96.4597 C   0  0  0  0  0  0  0  0  0  0  0  0
  -17.3556  -30.1583   95.3781 O   0  0  0  0  0  0  0  0  0  0  0  0
  -16.9125  -29.2999   95.2903 H   0  0  0  0  0  0  0  0  0  0  0  0
  1  2  1  0  0  0
  1  9  1  0  0  0
  2  3  1  0  0  0
  2  4  1  0  0  0
  4  5  1  0  0  0
  4  6  1  0  0  0
  6  7  1  0  0  0
  6  8  1  0  0  0
  8  9  1  0  0  0
  8 14  1  0  0  0
 14 15  1  0  0  0
  3 10  1  0  0  0
  5 11  1  0  0  0
  7 12  1  0  0  0
  9 13  1  0  0  0
 15 16  1  0  0  0
M  END
> <minimizedAffinity>
-5.40754

$$$$
5NN5_NOJ_A_1016


 16 16  0  0  0  0  0  0  0  0999 V2000
  -15.1089  -34.4896   95.7690 C   0  0  0  0  0  0  0  0  0  0  0  0
  -14.0342  -33.8906   94.8559 C   0  0  0  0  0  0  0  0  0  0  0  0
  -13.2881  -34.9701   94.3133 O   0  0  0  0  0  0  0  0  0  0  0  0
  -13.1340  -32.9298   95.6394 C   0  0  0  0  0  0  0  0  0  0  0  0
  -12.1534  -32.3699   94.7519 O   0  0  0  0  0  0  0  0  0  0  0  0
  -13.9738  -31.8117   96.2385 C   0  0  0  0  0  0  0  0  0  0  0  0
  -13.1339  -30.9429   96.9971 O   0  0  0  0  0  0  0  0  0  0  0  0
  -15.0852  -32.3667   97.1204 C   0  0  0  0  0  0  0  0  0  0  0  0
  -15.8101  -33.3954   96.3953 N   0  0  0  0  0  0  0  0  0  0  0  0
  -12.8868  -35.4803   95.0341 H   0  0  0  0  0  0  0  0  0  0  0  0
  -12.6006  -31.8873   94.0390 H   0  0  0  0  0  0  0  0  0  0  0  0
  -12.7210  -31.4418   97.7193 H   0  0  0  0  0  0  0  0  0  0  0  0
  -16.4660  -33.8106   97.0570 H   0  0  0  0  0  0  0  0  0  0  0  0
  -16.0444  -31.2819   97.6192 C   0  0  0  0  0  0  0  0  0  0  0  0
  -16.1297  -30.2080   96.6804 O   0  0  0  0  0  0  0  0  0  0  0  0
  -15.2531  -29.8091   96.5650 H   0  0  0  0  0  0  0  0  0  0  0  0
  1  2  1  0  0  0
  1  9  1  0  0  0
  2  3  1  0  0  0
  2  4  1  0  0  0
  4  5  1  0  0  0
  4  6  1  0  0  0
  6  7  1  0  0  0
  6  8  1  0  0  0
  8  9  1  0  0  0
  8 14  1  0  0  0
 14 15  1  0  0  0
  3 10  1  0  0  0
  5 11  1  0  0  0
  7 12  1  0  0  0
  9 13  1  0  0  0
 15 16  1  0  0  0
M  END
> <minimizedAffinity>
-5.40683

$$$$
5NN5_NOJ_A_1016


 16 16  0  0  0  0  0  0  0  0999 V2000
  -13.5796  -33.8831   95.9883 C   0  0  0  0  0  0  0  0  0  0  0  0
  -14.8210  -33.5557   96.8247 C   0  0  0  0  0  0  0  0  0  0  0  0
  -15.8734  -34.3926   96.3681 O   0  0  0  0  0  0  0  0  0  0  0  0
  -15.1886  -32.0746   96.6890 C   0  0  0  0  0  0  0  0  0  0  0  0
  -16.3403  -31.7964   97.5007 O   0  0  0  0  0  0  0  0  0  0  0  0
  -14.0231  -31.2115   97.1485 C   0  0  0  0  0  0  0  0  0  0  0  0
  -14.3595  -29.8348   96.9838 O   0  0  0  0  0  0  0  0  0  0  0  0
  -12.7540  -31.5367   96.3711 C   0  0  0  0  0  0  0  0  0  0  0  0
  -12.5332  -32.9721   96.3839 N   0  0  0  0  0  0  0  0  0  0  0  0
  -16.0347  -34.2247   95.4264 H   0  0  0  0  0  0  0  0  0  0  0  0
  -16.1385  -31.9972   98.4280 H   0  0  0  0  0  0  0  0  0  0  0  0
  -14.5290  -29.6533   96.0461 H   0  0  0  0  0  0  0  0  0  0  0  0
  -11.7425  -33.1505   95.7647 H   0  0  0  0  0  0  0  0  0  0  0  0
  -11.5242  -30.7978   96.9070 C   0  0  0  0  0  0  0  0  0  0  0  0
  -10.5710  -31.7184   97.4416 O   0  0  0  0  0  0  0  0  0  0  0  0
  -10.9729  -32.2109   98.1743 H   0  0  0  0  0  0  0  0  0  0  0  0
  1  2  1  0  0  0
  1  9  1  0  0  0
  2  3  1  0  0  0
  2  4  1  0  0  0
  4  5  1  0  0  0
  4  6  1  0  0  0
  6  7  1  0  0  0
  6  8  1  0  0  0
  8  9  1  0  0  0
  8 14  1  0  0  0
 14 15  1  0  0  0
  3 10  1  0  0  0
  5 11  1  0  0  0
  7 12  1  0  0  0
  9 13  1  0  0  0
 15 16  1  0  0  0
M  END
> <minimizedAffinity>
-5.35705

$$$$
5NN5_NOJ_A_1016


 16 16  0  0  0  0  0  0  0  0999 V2000
  -15.0663  -30.4933   97.1065 C   0  0  0  0  0  0  0  0  0  0  0  0
  -15.8158  -31.7416   96.6292 C   0  0  0  0  0  0  0  0  0  0  0  0
  -17.0684  -31.7662   97.2977 O   0  0  0  0  0  0  0  0  0  0  0  0
  -15.0023  -33.0059   96.9241 C   0  0  0  0  0  0  0  0  0  0  0  0
  -15.7210  -34.1536   96.4457 O   0  0  0  0  0  0  0  0  0  0  0  0
  -13.6534  -32.9239   96.2254 C   0  0  0  0  0  0  0  0  0  0  0  0
  -12.8880  -34.0873   96.5355 O   0  0  0  0  0  0  0  0  0  0  0  0
  -12.8918  -31.6709   96.6387 C   0  0  0  0  0  0  0  0  0  0  0  0
  -13.7564  -30.5120   96.5019 N   0  0  0  0  0  0  0  0  0  0  0  0
  -16.9228  -31.7936   98.2563 H   0  0  0  0  0  0  0  0  0  0  0  0
  -15.8597  -34.0726   95.4891 H   0  0  0  0  0  0  0  0  0  0  0  0
  -12.7391  -34.1307   97.4930 H   0  0  0  0  0  0  0  0  0  0  0  0
  -13.2450  -29.7198   96.8909 H   0  0  0  0  0  0  0  0  0  0  0  0
  -11.5976  -31.4741   95.8439 C   0  0  0  0  0  0  0  0  0  0  0  0
  -11.6599  -32.1616   94.5928 O   0  0  0  0  0  0  0  0  0  0  0  0
  -11.7779  -33.1113   94.7512 H   0  0  0  0  0  0  0  0  0  0  0  0
  1  2  1  0  0  0
  1  9  1  0  0  0
  2  3  1  0  0  0
  2  4  1  0  0  0
  4  5  1  0  0  0
  4  6  1  0  0  0
  6  7  1  0  0  0
  6  8  1  0  0  0
  8  9  1  0  0  0
  8 14  1  0  0  0
 14 15  1  0  0  0
  3 10  1  0  0  0
  5 11  1  0  0  0
  7 12  1  0  0  0
  9 13  1  0  0  0
 15 16  1  0  0  0
M  END
> <minimizedAffinity>
-5.30770

$$$$
5NN5_NOJ_A_1016


 16 16  0  0  0  0  0  0  0  0999 V2000
  -14.4647  -35.0302   97.4625 C   0  0  0  0  0  0  0  0  0  0  0  0
  -14.7850  -35.2989   95.9884 C   0  0  0  0  0  0  0  0  0  0  0  0
  -14.6685  -36.6983   95.7769 O   0  0  0  0  0  0  0  0  0  0  0  0
  -13.8332  -34.5170   95.0775 C   0  0  0  0  0  0  0  0  0  0  0  0
  -14.1735  -34.7729   93.7059 O   0  0  0  0  0  0  0  0  0  0  0  0
  -13.9571  -33.0276   95.3620 C   0  0  0  0  0  0  0  0  0  0  0  0
  -13.0410  -32.3099   94.5365 O   0  0  0  0  0  0  0  0  0  0  0  0
  -13.6895  -32.7209   96.8301 C   0  0  0  0  0  0  0  0  0  0  0  0
  -14.4904  -33.6016   97.6621 N   0  0  0  0  0  0  0  0  0  0  0  0
  -13.7675  -36.9842   95.9944 H   0  0  0  0  0  0  0  0  0  0  0  0
  -15.0865  -34.4897   93.5410 H   0  0  0  0  0  0  0  0  0  0  0  0
  -12.1348  -32.5902   94.7397 H   0  0  0  0  0  0  0  0  0  0  0  0
  -14.1984  -33.4370   98.6255 H   0  0  0  0  0  0  0  0  0  0  0  0
  -13.9530  -31.2552   97.1876 C   0  0  0  0  0  0  0  0  0  0  0  0
  -13.1699  -30.8582   98.3149 O   0  0  0  0  0  0  0  0  0  0  0  0
  -13.4052  -31.4050   99.0808 H   0  0  0  0  0  0  0  0  0  0  0  0
  1  2  1  0  0  0
  1  9  1  0  0  0
  2  3  1  0  0  0
  2  4  1  0  0  0
  4  5  1  0  0  0
  4  6  1  0  0  0
  6  7  1  0  0  0
  6  8  1  0  0  0
  8  9  1  0  0  0
  8 14  1  0  0  0
 14 15  1  0  0  0
  3 10  1  0  0  0
  5 11  1  0  0  0
  7 12  1  0  0  0
  9 13  1  0  0  0
 15 16  1  0  0  0
M  END
> <minimizedAffinity>
-5.09037

$$$$
5NN5_NOJ_A_1016


 16 16  0  0  0  0  0  0  0  0999 V2000
  -15.8326  -31.7133   96.0342 C   0  0  0  0  0  0  0  0  0  0  0  0
  -15.5417  -31.7094   97.5386 C   0  0  0  0  0  0  0  0  0  0  0  0
  -16.5502  -30.9295   98.1640 O   0  0  0  0  0  0  0  0  0  0  0  0
  -14.1461  -31.1422   97.8175 C   0  0  0  0  0  0  0  0  0  0  0  0
  -13.8965  -31.1729   99.2315 O   0  0  0  0  0  0  0  0  0  0  0  0
  -13.0982  -31.9786   97.0986 C   0  0  0  0  0  0  0  0  0  0  0  0
  -11.8056  -31.4218   97.3328 O   0  0  0  0  0  0  0  0  0  0  0  0
  -13.3757  -32.0458   95.6021 C   0  0  0  0  0  0  0  0  0  0  0  0
  -14.7602  -32.4259   95.3834 N   0  0  0  0  0  0  0  0  0  0  0  0
  -16.5321  -30.0288   97.8043 H   0  0  0  0  0  0  0  0  0  0  0  0
  -13.9441  -32.0885   99.5484 H   0  0  0  0  0  0  0  0  0  0  0  0
  -11.7746  -30.5178   96.9825 H   0  0  0  0  0  0  0  0  0  0  0  0
  -14.9277  -32.3508   94.3800 H   0  0  0  0  0  0  0  0  0  0  0  0
  -12.4320  -33.0015   94.8661 C   0  0  0  0  0  0  0  0  0  0  0  0
  -11.1746  -32.3744   94.6064 O   0  0  0  0  0  0  0  0  0  0  0  0
  -11.3121  -31.5931   94.0482 H   0  0  0  0  0  0  0  0  0  0  0  0
  1  2  1  0  0  0
  1  9  1  0  0  0
  2  3  1  0  0  0
  2  4  1  0  0  0
  4  5  1  0  0  0
  4  6  1  0  0  0
  6  7  1  0  0  0
  6  8  1  0  0  0
  8  9  1  0  0  0
  8 14  1  0  0  0
 14 15  1  0  0  0
  3 10  1  0  0  0
  5 11  1  0  0  0
  7 12  1  0  0  0
  9 13  1  0  0  0
 15 16  1  0  0  0
M  END
> <minimizedAffinity>
-4.76661

$$$$
