4I7J_BNZ_A_202


  6  6  0  0  0  0  0  0  0  0999 V2000
    2.4014    8.0135    0.6967 C   0  0  0  0  0  0  0  0  0  0  0  0
    3.5972    8.6623    0.3870 C   0  0  0  0  0  0  0  0  0  0  0  0
    3.9268    9.9069    0.9258 C   0  0  0  0  0  0  0  0  0  0  0  0
    2.9870   10.4708    1.8252 C   0  0  0  0  0  0  0  0  0  0  0  0
    1.8048    9.8180    2.1495 C   0  0  0  0  0  0  0  0  0  0  0  0
    1.5098    8.5830    1.5933 C   0  0  0  0  0  0  0  0  0  0  0  0
  1  2  2  0  0  0
  1  6  1  0  0  0
  2  3  1  0  0  0
  3  4  2  0  0  0
  4  5  1  0  0  0
  5  6  2  0  0  0
M  END
> <minimizedAffinity>
-5.66599

$$$$
4I7J_BNZ_A_202


  6  6  0  0  0  0  0  0  0  0999 V2000
    3.0310   10.4792    1.7447 C   0  0  0  0  0  0  0  0  0  0  0  0
    1.8659    9.7865    2.0758 C   0  0  0  0  0  0  0  0  0  0  0  0
    1.5815    8.5228    1.5561 C   0  0  0  0  0  0  0  0  0  0  0  0
    2.5535    7.9682    0.6856 C   0  0  0  0  0  0  0  0  0  0  0  0
    3.7227    8.6479    0.3698 C   0  0  0  0  0  0  0  0  0  0  0  0
    3.9710    9.9028    0.9037 C   0  0  0  0  0  0  0  0  0  0  0  0
  1  2  2  0  0  0
  1  6  1  0  0  0
  2  3  1  0  0  0
  3  4  2  0  0  0
  4  5  1  0  0  0
  5  6  2  0  0  0
M  END
> <minimizedAffinity>
-5.63355

$$$$
4I7J_BNZ_A_202


  6  6  0  0  0  0  0  0  0  0999 V2000
    1.5681    9.3377    1.9852 C   0  0  0  0  0  0  0  0  0  0  0  0
    2.5070   10.3694    2.0154 C   0  0  0  0  0  0  0  0  0  0  0  0
    3.7121   10.2963    1.3153 C   0  0  0  0  0  0  0  0  0  0  0  0
    3.9242    9.1211    0.5511 C   0  0  0  0  0  0  0  0  0  0  0  0
    2.9827    8.1012    0.5044 C   0  0  0  0  0  0  0  0  0  0  0  0
    1.7969    8.2077    1.2145 C   0  0  0  0  0  0  0  0  0  0  0  0
  1  2  2  0  0  0
  1  6  1  0  0  0
  2  3  1  0  0  0
  3  4  2  0  0  0
  4  5  1  0  0  0
  5  6  2  0  0  0
M  END
> <minimizedAffinity>
-5.59336

$$$$
4I7J_BNZ_A_202


  6  6  0  0  0  0  0  0  0  0999 V2000
    4.1450    8.7864    0.4197 C   0  0  0  0  0  0  0  0  0  0  0  0
    3.0449    7.9372    0.5443 C   0  0  0  0  0  0  0  0  0  0  0  0
    1.9219    8.2839    1.2970 C   0  0  0  0  0  0  0  0  0  0  0  0
    1.9491    9.5598    1.9147 C   0  0  0  0  0  0  0  0  0  0  0  0
    3.0351   10.4144    1.7763 C   0  0  0  0  0  0  0  0  0  0  0  0
    4.1346   10.0355    1.0220 C   0  0  0  0  0  0  0  0  0  0  0  0
  1  2  2  0  0  0
  1  6  1  0  0  0
  2  3  1  0  0  0
  3  4  2  0  0  0
  4  5  1  0  0  0
  5  6  2  0  0  0
M  END
> <minimizedAffinity>
-5.54810

$$$$
4I7J_BNZ_A_202


  6  6  0  0  0  0  0  0  0  0999 V2000
    3.3048   10.5223    1.6521 C   0  0  0  0  0  0  0  0  0  0  0  0
    4.1701    9.8776    0.7675 C   0  0  0  0  0  0  0  0  0  0  0  0
    3.9287    8.5831    0.3052 C   0  0  0  0  0  0  0  0  0  0  0  0
    2.7412    7.9620    0.7679 C   0  0  0  0  0  0  0  0  0  0  0  0
    1.8689    8.6090    1.6335 C   0  0  0  0  0  0  0  0  0  0  0  0
    2.1421    9.8949    2.0735 C   0  0  0  0  0  0  0  0  0  0  0  0
  1  2  2  0  0  0
  1  6  1  0  0  0
  2  3  1  0  0  0
  3  4  2  0  0  0
  4  5  1  0  0  0
  5  6  2  0  0  0
M  END
> <minimizedAffinity>
-5.45847

$$$$
