1C1U_BAI_H_410


 27 30  0  0  0  0  0  0  0  0999 V2000
   11.6693  -10.2784   23.8454 C   0  0  0  0  0  0  0  0  0  0  0  0
   10.8730  -11.4509   23.8897 C   0  0  0  0  0  0  0  0  0  0  0  0
   11.0956  -12.5376   23.0408 C   0  0  0  0  0  0  0  0  0  0  0  0
   12.1416  -12.3980   22.1609 C   0  0  0  0  0  0  0  0  0  0  0  0
   12.9073  -11.2965   22.1047 C   0  0  0  0  0  0  0  0  0  0  0  0
   12.7246  -10.2129   22.9174 C   0  0  0  0  0  0  0  0  0  0  0  0
   13.5889  -12.6601   20.6303 C   0  0  0  0  0  0  0  0  0  0  0  0
   12.5794  -13.2175   21.2479 N   0  0  0  0  0  0  0  0  0  0  0  0
   13.7877  -11.4789   21.1610 N   0  0  0  0  0  0  0  0  0  0  0  0
   12.2110  -14.1098   21.0544 H   0  0  0  0  0  0  0  0  0  0  0  0
   11.4229   -9.2068   24.6621 C   0  0  0  0  0  0  0  0  0  0  0  0
   10.1953   -8.9385   25.0205 N   0  0  0  0  0  0  0  0  0  0  0  0
   12.4379   -8.4817   25.0732 N   0  0  0  0  0  0  0  0  0  0  0  0
    9.4541   -9.4997   24.6967 H   0  0  0  0  0  0  0  0  0  0  0  0
   10.0115   -8.1750   25.6144 H   0  0  0  0  0  0  0  0  0  0  0  0
   13.3523   -8.7076   24.7867 H   0  0  0  0  0  0  0  0  0  0  0  0
   14.4192  -13.2862   19.4138 C   0  0  0  0  0  0  0  0  0  0  0  0
   19.9166  -14.2167   21.4366 C   0  0  0  0  0  0  0  0  0  0  0  0
   20.3344  -13.8453   20.1352 C   0  0  0  0  0  0  0  0  0  0  0  0
   19.3908  -13.5033   19.1357 C   0  0  0  0  0  0  0  0  0  0  0  0
   18.0576  -13.5515   19.5084 C   0  0  0  0  0  0  0  0  0  0  0  0
   17.6817  -13.9103   20.7537 C   0  0  0  0  0  0  0  0  0  0  0  0
   18.5571  -14.2545   21.7647 C   0  0  0  0  0  0  0  0  0  0  0  0
   15.9505  -13.4798   19.6512 C   0  0  0  0  0  0  0  0  0  0  0  0
   16.9633  -13.2890   18.8297 N   0  0  0  0  0  0  0  0  0  0  0  0
   16.3893  -13.8580   20.8061 N   0  0  0  0  0  0  0  0  0  0  0  0
   16.9103  -13.0045   17.8887 H   0  0  0  0  0  0  0  0  0  0  0  0
  1  2  1  0  0  0
  1  6  2  0  0  0
  1 11  1  0  0  0
  2  3  2  0  0  0
  3  4  1  0  0  0
  4  5  2  0  0  0
  4  8  1  0  0  0
  5  6  1  0  0  0
  5  9  1  0  0  0
 11 12  1  0  0  0
 11 13  2  0  0  0
  7 17  1  0  0  0
  7  8  1  0  0  0
  7  9  2  0  0  0
 17 24  1  0  0  0
 18 19  1  0  0  0
 18 23  2  0  0  0
 19 20  2  0  0  0
 20 21  1  0  0  0
 21 22  2  0  0  0
 21 25  1  0  0  0
 22 23  1  0  0  0
 22 26  1  0  0  0
 24 25  1  0  0  0
 24 26  2  0  0  0
 12 14  1  0  0  0
 12 15  1  0  0  0
 13 16  1  0  0  0
  8 10  1  0  0  0
 25 27  1  0  0  0
M  END
> <minimizedAffinity>
-9.21772

$$$$
1C1U_BAI_H_410


 27 30  0  0  0  0  0  0  0  0999 V2000
   11.5937  -11.6712   22.8801 C   0  0  0  0  0  0  0  0  0  0  0  0
   11.7561  -10.5916   21.9752 C   0  0  0  0  0  0  0  0  0  0  0  0
   12.5449  -10.6915   20.8268 C   0  0  0  0  0  0  0  0  0  0  0  0
   13.1513  -11.9084   20.6282 C   0  0  0  0  0  0  0  0  0  0  0  0
   13.0089  -12.9424   21.4727 C   0  0  0  0  0  0  0  0  0  0  0  0
   12.2458  -12.8872   22.6053 C   0  0  0  0  0  0  0  0  0  0  0  0
   14.3016  -13.5372   19.9001 C   0  0  0  0  0  0  0  0  0  0  0  0
   13.9478  -12.2983   19.6740 N   0  0  0  0  0  0  0  0  0  0  0  0
   13.7212  -13.9298   21.0072 N   0  0  0  0  0  0  0  0  0  0  0  0
   14.2360  -11.7506   18.9084 H   0  0  0  0  0  0  0  0  0  0  0  0
   10.8420  -11.5523   24.0189 C   0  0  0  0  0  0  0  0  0  0  0  0
   10.2441  -12.6056   24.5094 N   0  0  0  0  0  0  0  0  0  0  0  0
   10.7531  -10.3753   24.5948 N   0  0  0  0  0  0  0  0  0  0  0  0
   10.3286  -13.4754   24.0559 H   0  0  0  0  0  0  0  0  0  0  0  0
    9.7092  -12.5295   25.3323 H   0  0  0  0  0  0  0  0  0  0  0  0
   11.2145   -9.5992   24.2024 H   0  0  0  0  0  0  0  0  0  0  0  0
   15.2975  -14.4169   19.0081 C   0  0  0  0  0  0  0  0  0  0  0  0
   16.5663  -11.1391   14.2306 C   0  0  0  0  0  0  0  0  0  0  0  0
   16.6233  -12.3748   13.5405 C   0  0  0  0  0  0  0  0  0  0  0  0
   16.4030  -13.5994   14.2174 C   0  0  0  0  0  0  0  0  0  0  0  0
   16.1296  -13.5108   15.5725 C   0  0  0  0  0  0  0  0  0  0  0  0
   16.0823  -12.3227   16.2105 C   0  0  0  0  0  0  0  0  0  0  0  0
   16.2904  -11.1009   15.6016 C   0  0  0  0  0  0  0  0  0  0  0  0
   15.6739  -13.8290   17.6112 C   0  0  0  0  0  0  0  0  0  0  0  0
   15.8758  -14.4434   16.4628 N   0  0  0  0  0  0  0  0  0  0  0  0
   15.8041  -12.5532   17.4535 N   0  0  0  0  0  0  0  0  0  0  0  0
   15.8429  -15.4143   16.3029 H   0  0  0  0  0  0  0  0  0  0  0  0
  1  2  1  0  0  0
  1  6  2  0  0  0
  1 11  1  0  0  0
  2  3  2  0  0  0
  3  4  1  0  0  0
  4  5  2  0  0  0
  4  8  1  0  0  0
  5  6  1  0  0  0
  5  9  1  0  0  0
 11 12  1  0  0  0
 11 13  2  0  0  0
  7 17  1  0  0  0
  7  8  1  0  0  0
  7  9  2  0  0  0
 17 24  1  0  0  0
 18 19  1  0  0  0
 18 23  2  0  0  0
 19 20  2  0  0  0
 20 21  1  0  0  0
 21 22  2  0  0  0
 21 25  1  0  0  0
 22 23  1  0  0  0
 22 26  1  0  0  0
 24 25  1  0  0  0
 24 26  2  0  0  0
 12 14  1  0  0  0
 12 15  1  0  0  0
 13 16  1  0  0  0
  8 10  1  0  0  0
 25 27  1  0  0  0
M  END
> <minimizedAffinity>
-8.71623

$$$$
1C1U_BAI_H_410


 27 30  0  0  0  0  0  0  0  0999 V2000
   11.8053  -11.8003   22.9073 C   0  0  0  0  0  0  0  0  0  0  0  0
   12.2425  -10.5863   22.3192 C   0  0  0  0  0  0  0  0  0  0  0  0
   13.4437  -10.4882   21.6132 C   0  0  0  0  0  0  0  0  0  0  0  0
   14.1739  -11.6485   21.5215 C   0  0  0  0  0  0  0  0  0  0  0  0
   13.7762  -12.8076   22.0704 C   0  0  0  0  0  0  0  0  0  0  0  0
   12.6085  -12.9468   22.7670 C   0  0  0  0  0  0  0  0  0  0  0  0
   15.6505  -13.1223   21.1293 C   0  0  0  0  0  0  0  0  0  0  0  0
   15.3244  -11.8680   20.9515 N   0  0  0  0  0  0  0  0  0  0  0  0
   14.6951  -13.6968   21.8174 N   0  0  0  0  0  0  0  0  0  0  0  0
   15.8605  -11.1996   20.4665 H   0  0  0  0  0  0  0  0  0  0  0  0
   10.6401  -11.8775   23.6231 C   0  0  0  0  0  0  0  0  0  0  0  0
    9.8892  -12.9418   23.5190 N   0  0  0  0  0  0  0  0  0  0  0  0
   10.3156  -10.8757   24.4080 N   0  0  0  0  0  0  0  0  0  0  0  0
   10.1578  -13.6774   22.9224 H   0  0  0  0  0  0  0  0  0  0  0  0
    9.0547  -13.0080   24.0371 H   0  0  0  0  0  0  0  0  0  0  0  0
   10.9010  -10.0863   24.4663 H   0  0  0  0  0  0  0  0  0  0  0  0
   16.9953  -13.8324   20.6305 C   0  0  0  0  0  0  0  0  0  0  0  0
   19.9671  -15.2418   25.5661 C   0  0  0  0  0  0  0  0  0  0  0  0
   21.1236  -15.1740   24.7511 C   0  0  0  0  0  0  0  0  0  0  0  0
   21.0270  -14.8693   23.3712 C   0  0  0  0  0  0  0  0  0  0  0  0
   19.7515  -14.6424   22.8808 C   0  0  0  0  0  0  0  0  0  0  0  0
   18.6630  -14.7143   23.6750 C   0  0  0  0  0  0  0  0  0  0  0  0
   18.6988  -15.0085   25.0238 C   0  0  0  0  0  0  0  0  0  0  0  0
   18.0239  -14.2183   21.7402 C   0  0  0  0  0  0  0  0  0  0  0  0
   19.3350  -14.3350   21.6729 N   0  0  0  0  0  0  0  0  0  0  0  0
   17.6253  -14.4522   22.9468 N   0  0  0  0  0  0  0  0  0  0  0  0
   19.8946  -14.2151   20.8719 H   0  0  0  0  0  0  0  0  0  0  0  0
  1  2  1  0  0  0
  1  6  2  0  0  0
  1 11  1  0  0  0
  2  3  2  0  0  0
  3  4  1  0  0  0
  4  5  2  0  0  0
  4  8  1  0  0  0
  5  6  1  0  0  0
  5  9  1  0  0  0
 11 12  1  0  0  0
 11 13  2  0  0  0
  7 17  1  0  0  0
  7  8  1  0  0  0
  7  9  2  0  0  0
 17 24  1  0  0  0
 18 19  1  0  0  0
 18 23  2  0  0  0
 19 20  2  0  0  0
 20 21  1  0  0  0
 21 22  2  0  0  0
 21 25  1  0  0  0
 22 23  1  0  0  0
 22 26  1  0  0  0
 24 25  1  0  0  0
 24 26  2  0  0  0
 12 14  1  0  0  0
 12 15  1  0  0  0
 13 16  1  0  0  0
  8 10  1  0  0  0
 25 27  1  0  0  0
M  END
> <minimizedAffinity>
-8.48746

$$$$
1C1U_BAI_H_410


 27 30  0  0  0  0  0  0  0  0999 V2000
   19.8158  -14.6464   22.1000 C   0  0  0  0  0  0  0  0  0  0  0  0
   20.2996  -14.1989   20.8444 C   0  0  0  0  0  0  0  0  0  0  0  0
   19.4551  -13.6797   19.8603 C   0  0  0  0  0  0  0  0  0  0  0  0
   18.1224  -13.6267   20.1906 C   0  0  0  0  0  0  0  0  0  0  0  0
   17.6456  -14.0444   21.3742 C   0  0  0  0  0  0  0  0  0  0  0  0
   18.4369  -14.5565   22.3639 C   0  0  0  0  0  0  0  0  0  0  0  0
   16.0157  -13.3657   20.1990 C   0  0  0  0  0  0  0  0  0  0  0  0
   17.1044  -13.2161   19.4892 N   0  0  0  0  0  0  0  0  0  0  0  0
   16.3533  -13.8748   21.3581 N   0  0  0  0  0  0  0  0  0  0  0  0
   17.1472  -12.8529   18.5752 H   0  0  0  0  0  0  0  0  0  0  0  0
   20.6493  -15.1816   23.0460 C   0  0  0  0  0  0  0  0  0  0  0  0
   21.1300  -16.3846   22.8750 N   0  0  0  0  0  0  0  0  0  0  0  0
   20.9518  -14.4590   24.1002 N   0  0  0  0  0  0  0  0  0  0  0  0
   20.8856  -16.9032   22.0746 H   0  0  0  0  0  0  0  0  0  0  0  0
   21.7365  -16.7724   23.5466 H   0  0  0  0  0  0  0  0  0  0  0  0
   20.5745  -13.5554   24.2024 H   0  0  0  0  0  0  0  0  0  0  0  0
   14.5239  -13.0249   19.7304 C   0  0  0  0  0  0  0  0  0  0  0  0
   11.4663  -10.2229   23.9704 C   0  0  0  0  0  0  0  0  0  0  0  0
   10.7429  -11.4350   24.0891 C   0  0  0  0  0  0  0  0  0  0  0  0
   11.0386  -12.5453   23.2608 C   0  0  0  0  0  0  0  0  0  0  0  0
   12.0649  -12.3727   22.3467 C   0  0  0  0  0  0  0  0  0  0  0  0
   12.7396  -11.2082   22.2491 C   0  0  0  0  0  0  0  0  0  0  0  0
   12.4926  -10.0952   23.0284 C   0  0  0  0  0  0  0  0  0  0  0  0
   13.5433  -12.5441   20.8465 C   0  0  0  0  0  0  0  0  0  0  0  0
   12.5767  -13.1969   21.4602 N   0  0  0  0  0  0  0  0  0  0  0  0
   13.6331  -11.3464   21.3227 N   0  0  0  0  0  0  0  0  0  0  0  0
   12.2927  -14.1236   21.2878 H   0  0  0  0  0  0  0  0  0  0  0  0
  1  2  1  0  0  0
  1  6  2  0  0  0
  1 11  1  0  0  0
  2  3  2  0  0  0
  3  4  1  0  0  0
  4  5  2  0  0  0
  4  8  1  0  0  0
  5  6  1  0  0  0
  5  9  1  0  0  0
 11 12  1  0  0  0
 11 13  2  0  0  0
  7 17  1  0  0  0
  7  8  1  0  0  0
  7  9  2  0  0  0
 17 24  1  0  0  0
 18 19  1  0  0  0
 18 23  2  0  0  0
 19 20  2  0  0  0
 20 21  1  0  0  0
 21 22  2  0  0  0
 21 25  1  0  0  0
 22 23  1  0  0  0
 22 26  1  0  0  0
 24 25  1  0  0  0
 24 26  2  0  0  0
 12 14  1  0  0  0
 12 15  1  0  0  0
 13 16  1  0  0  0
  8 10  1  0  0  0
 25 27  1  0  0  0
M  END
> <minimizedAffinity>
-8.20887

$$$$
1C1U_BAI_H_410


 27 30  0  0  0  0  0  0  0  0999 V2000
   12.0897  -12.6377   22.2888 C   0  0  0  0  0  0  0  0  0  0  0  0
   11.6443  -13.8236   21.6517 C   0  0  0  0  0  0  0  0  0  0  0  0
   12.4133  -14.4929   20.6968 C   0  0  0  0  0  0  0  0  0  0  0  0
   13.6345  -13.9283   20.4175 C   0  0  0  0  0  0  0  0  0  0  0  0
   14.0741  -12.8069   21.0109 C   0  0  0  0  0  0  0  0  0  0  0  0
   13.3546  -12.1231   21.9504 C   0  0  0  0  0  0  0  0  0  0  0  0
   15.5472  -13.4531   19.6287 C   0  0  0  0  0  0  0  0  0  0  0  0
   14.5547  -14.3037   19.5754 N   0  0  0  0  0  0  0  0  0  0  0  0
   15.2477  -12.5344   20.5135 N   0  0  0  0  0  0  0  0  0  0  0  0
   14.5106  -15.0973   18.9944 H   0  0  0  0  0  0  0  0  0  0  0  0
   11.3143  -11.9733   23.2016 C   0  0  0  0  0  0  0  0  0  0  0  0
   11.6110  -10.7425   23.5248 N   0  0  0  0  0  0  0  0  0  0  0  0
   10.2803  -12.5949   23.7207 N   0  0  0  0  0  0  0  0  0  0  0  0
   12.3925  -10.3018   23.1194 H   0  0  0  0  0  0  0  0  0  0  0  0
   11.0531  -10.2558   24.1737 H   0  0  0  0  0  0  0  0  0  0  0  0
   10.0810  -13.5226   23.4583 H   0  0  0  0  0  0  0  0  0  0  0  0
   16.8814  -13.4963   18.7460 C   0  0  0  0  0  0  0  0  0  0  0  0
   16.3272  -13.2803   12.8447 C   0  0  0  0  0  0  0  0  0  0  0  0
   16.4060  -11.8750   13.0042 C   0  0  0  0  0  0  0  0  0  0  0  0
   16.5397  -11.2927   14.2885 C   0  0  0  0  0  0  0  0  0  0  0  0
   16.5911  -12.1714   15.3581 C   0  0  0  0  0  0  0  0  0  0  0  0
   16.5121  -13.5071   15.1834 C   0  0  0  0  0  0  0  0  0  0  0  0
   16.3797  -14.1274   13.9568 C   0  0  0  0  0  0  0  0  0  0  0  0
   16.7215  -13.1316   17.2360 C   0  0  0  0  0  0  0  0  0  0  0  0
   16.7179  -11.9522   16.6477 N   0  0  0  0  0  0  0  0  0  0  0  0
   16.5927  -14.0629   16.3497 N   0  0  0  0  0  0  0  0  0  0  0  0
   16.7954  -11.0758   17.0893 H   0  0  0  0  0  0  0  0  0  0  0  0
  1  2  1  0  0  0
  1  6  2  0  0  0
  1 11  1  0  0  0
  2  3  2  0  0  0
  3  4  1  0  0  0
  4  5  2  0  0  0
  4  8  1  0  0  0
  5  6  1  0  0  0
  5  9  1  0  0  0
 11 12  1  0  0  0
 11 13  2  0  0  0
  7 17  1  0  0  0
  7  8  1  0  0  0
  7  9  2  0  0  0
 17 24  1  0  0  0
 18 19  1  0  0  0
 18 23  2  0  0  0
 19 20  2  0  0  0
 20 21  1  0  0  0
 21 22  2  0  0  0
 21 25  1  0  0  0
 22 23  1  0  0  0
 22 26  1  0  0  0
 24 25  1  0  0  0
 24 26  2  0  0  0
 12 14  1  0  0  0
 12 15  1  0  0  0
 13 16  1  0  0  0
  8 10  1  0  0  0
 25 27  1  0  0  0
M  END
> <minimizedAffinity>
-7.72472

$$$$
1C1U_BAI_H_410


 27 30  0  0  0  0  0  0  0  0999 V2000
   11.4631  -10.1814   24.0825 C   0  0  0  0  0  0  0  0  0  0  0  0
   10.6920  -11.3571   24.2672 C   0  0  0  0  0  0  0  0  0  0  0  0
   10.9214  -12.5239   23.5343 C   0  0  0  0  0  0  0  0  0  0  0  0
   11.9482  -12.4595   22.6235 C   0  0  0  0  0  0  0  0  0  0  0  0
   12.6899  -11.3563   22.4350 C   0  0  0  0  0  0  0  0  0  0  0  0
   12.4998  -10.1958   23.1315 C   0  0  0  0  0  0  0  0  0  0  0  0
   13.3725  -12.8565   21.1003 C   0  0  0  0  0  0  0  0  0  0  0  0
   12.3860  -13.3635   21.7940 N   0  0  0  0  0  0  0  0  0  0  0  0
   13.5565  -11.6219   21.4983 N   0  0  0  0  0  0  0  0  0  0  0  0
   12.0326  -14.2779   21.7040 H   0  0  0  0  0  0  0  0  0  0  0  0
   11.2096   -9.0336   24.7855 C   0  0  0  0  0  0  0  0  0  0  0  0
   12.1934   -8.2224   25.0712 N   0  0  0  0  0  0  0  0  0  0  0  0
    9.9730   -8.7751   25.1447 N   0  0  0  0  0  0  0  0  0  0  0  0
   13.1105   -8.4423   24.7890 H   0  0  0  0  0  0  0  0  0  0  0  0
   12.0173   -7.3913   25.5687 H   0  0  0  0  0  0  0  0  0  0  0  0
    9.2519   -9.4050   24.9154 H   0  0  0  0  0  0  0  0  0  0  0  0
   14.1931  -13.5933   19.9407 C   0  0  0  0  0  0  0  0  0  0  0  0
   17.1542  -18.1107   22.3909 C   0  0  0  0  0  0  0  0  0  0  0  0
   18.2708  -17.6180   21.6719 C   0  0  0  0  0  0  0  0  0  0  0  0
   18.1563  -16.4798   20.8366 C   0  0  0  0  0  0  0  0  0  0  0  0
   16.9052  -15.8888   20.7730 C   0  0  0  0  0  0  0  0  0  0  0  0
   15.8543  -16.3763   21.4650 C   0  0  0  0  0  0  0  0  0  0  0  0
   15.9087  -17.4816   22.2911 C   0  0  0  0  0  0  0  0  0  0  0  0
   15.2055  -14.6892   20.4016 C   0  0  0  0  0  0  0  0  0  0  0  0
   16.4825  -14.8359   20.1099 N   0  0  0  0  0  0  0  0  0  0  0  0
   14.8326  -15.6222   21.2140 N   0  0  0  0  0  0  0  0  0  0  0  0
   17.0168  -14.2663   19.5105 H   0  0  0  0  0  0  0  0  0  0  0  0
  1  2  1  0  0  0
  1  6  2  0  0  0
  1 11  1  0  0  0
  2  3  2  0  0  0
  3  4  1  0  0  0
  4  5  2  0  0  0
  4  8  1  0  0  0
  5  6  1  0  0  0
  5  9  1  0  0  0
 11 12  1  0  0  0
 11 13  2  0  0  0
  7 17  1  0  0  0
  7  8  1  0  0  0
  7  9  2  0  0  0
 17 24  1  0  0  0
 18 19  1  0  0  0
 18 23  2  0  0  0
 19 20  2  0  0  0
 20 21  1  0  0  0
 21 22  2  0  0  0
 21 25  1  0  0  0
 22 23  1  0  0  0
 22 26  1  0  0  0
 24 25  1  0  0  0
 24 26  2  0  0  0
 12 14  1  0  0  0
 12 15  1  0  0  0
 13 16  1  0  0  0
  8 10  1  0  0  0
 25 27  1  0  0  0
M  END
> <minimizedAffinity>
-7.70895

$$$$
1C1U_BAI_H_410


 27 30  0  0  0  0  0  0  0  0999 V2000
   18.8223  -15.7093   21.0259 C   0  0  0  0  0  0  0  0  0  0  0  0
   17.9537  -16.8138   20.8349 C   0  0  0  0  0  0  0  0  0  0  0  0
   16.6089  -16.6560   20.4914 C   0  0  0  0  0  0  0  0  0  0  0  0
   16.1826  -15.3579   20.3461 C   0  0  0  0  0  0  0  0  0  0  0  0
   16.9899  -14.2995   20.5216 C   0  0  0  0  0  0  0  0  0  0  0  0
   18.3105  -14.4099   20.8559 C   0  0  0  0  0  0  0  0  0  0  0  0
   15.0509  -13.5883   20.0395 C   0  0  0  0  0  0  0  0  0  0  0  0
   15.0009  -14.8954   20.0519 N   0  0  0  0  0  0  0  0  0  0  0  0
   16.2764  -13.2259   20.3282 N   0  0  0  0  0  0  0  0  0  0  0  0
   14.2015  -15.4401   19.8689 H   0  0  0  0  0  0  0  0  0  0  0  0
   20.1316  -15.8751   21.3920 C   0  0  0  0  0  0  0  0  0  0  0  0
   20.7903  -14.8690   21.9032 N   0  0  0  0  0  0  0  0  0  0  0  0
   20.6873  -17.0537   21.2272 N   0  0  0  0  0  0  0  0  0  0  0  0
   20.3476  -13.9967   22.0150 H   0  0  0  0  0  0  0  0  0  0  0  0
   21.7291  -14.9832   22.1767 H   0  0  0  0  0  0  0  0  0  0  0  0
   20.1664  -17.7936   20.8393 H   0  0  0  0  0  0  0  0  0  0  0  0
   13.8277  -12.5951   19.7589 C   0  0  0  0  0  0  0  0  0  0  0  0
   10.7098  -11.0427   24.5596 C   0  0  0  0  0  0  0  0  0  0  0  0
   11.3799   -9.7995   24.4509 C   0  0  0  0  0  0  0  0  0  0  0  0
   12.3299   -9.5698   23.4257 C   0  0  0  0  0  0  0  0  0  0  0  0
   12.5537  -10.6197   22.5503 C   0  0  0  0  0  0  0  0  0  0  0  0
   11.9055  -11.7968   22.6737 C   0  0  0  0  0  0  0  0  0  0  0  0
   10.9728  -12.0753   23.6532 C   0  0  0  0  0  0  0  0  0  0  0  0
   13.1795  -11.9278   21.0131 C   0  0  0  0  0  0  0  0  0  0  0  0
   13.3498  -10.7187   21.5094 N   0  0  0  0  0  0  0  0  0  0  0  0
   12.3124  -12.5730   21.7211 N   0  0  0  0  0  0  0  0  0  0  0  0
   13.9566  -10.0235   21.1663 H   0  0  0  0  0  0  0  0  0  0  0  0
  1  2  1  0  0  0
  1  6  2  0  0  0
  1 11  1  0  0  0
  2  3  2  0  0  0
  3  4  1  0  0  0
  4  5  2  0  0  0
  4  8  1  0  0  0
  5  6  1  0  0  0
  5  9  1  0  0  0
 11 12  1  0  0  0
 11 13  2  0  0  0
  7 17  1  0  0  0
  7  8  1  0  0  0
  7  9  2  0  0  0
 17 24  1  0  0  0
 18 19  1  0  0  0
 18 23  2  0  0  0
 19 20  2  0  0  0
 20 21  1  0  0  0
 21 22  2  0  0  0
 21 25  1  0  0  0
 22 23  1  0  0  0
 22 26  1  0  0  0
 24 25  1  0  0  0
 24 26  2  0  0  0
 12 14  1  0  0  0
 12 15  1  0  0  0
 13 16  1  0  0  0
  8 10  1  0  0  0
 25 27  1  0  0  0
M  END
> <minimizedAffinity>
-7.58709

$$$$
1C1U_BAI_H_410


 27 30  0  0  0  0  0  0  0  0999 V2000
   13.8340  -14.1808   21.1400 C   0  0  0  0  0  0  0  0  0  0  0  0
   15.0390  -14.7593   21.6132 C   0  0  0  0  0  0  0  0  0  0  0  0
   16.2318  -14.6986   20.8888 C   0  0  0  0  0  0  0  0  0  0  0  0
   16.1623  -14.0365   19.6869 C   0  0  0  0  0  0  0  0  0  0  0  0
   15.0313  -13.4815   19.2225 C   0  0  0  0  0  0  0  0  0  0  0  0
   13.8447  -13.5167   19.8998 C   0  0  0  0  0  0  0  0  0  0  0  0
   16.5658  -13.1677   17.7925 C   0  0  0  0  0  0  0  0  0  0  0  0
   17.0869  -13.8307   18.7926 N   0  0  0  0  0  0  0  0  0  0  0  0
   15.3014  -12.9543   18.0614 N   0  0  0  0  0  0  0  0  0  0  0  0
   18.0238  -14.1257   18.8585 H   0  0  0  0  0  0  0  0  0  0  0  0
   12.6632  -14.2726   21.8449 C   0  0  0  0  0  0  0  0  0  0  0  0
   11.7454  -13.3551   21.6922 N   0  0  0  0  0  0  0  0  0  0  0  0
   12.4923  -15.2948   22.6517 N   0  0  0  0  0  0  0  0  0  0  0  0
   11.9014  -12.5999   21.0802 H   0  0  0  0  0  0  0  0  0  0  0  0
   10.8979  -13.4192   22.1890 H   0  0  0  0  0  0  0  0  0  0  0  0
   13.2016  -15.9709   22.7467 H   0  0  0  0  0  0  0  0  0  0  0  0
   17.3212  -12.7224   16.4537 C   0  0  0  0  0  0  0  0  0  0  0  0
   14.9750  -12.0291   11.0506 C   0  0  0  0  0  0  0  0  0  0  0  0
   13.7295  -11.9826   11.7236 C   0  0  0  0  0  0  0  0  0  0  0  0
   13.6552  -12.1194   13.1314 C   0  0  0  0  0  0  0  0  0  0  0  0
   14.8582  -12.2947   13.7952 C   0  0  0  0  0  0  0  0  0  0  0  0
   16.0336  -12.3382   13.1337 C   0  0  0  0  0  0  0  0  0  0  0  0
   16.1640  -12.2123   11.7647 C   0  0  0  0  0  0  0  0  0  0  0  0
   16.4314  -12.5621   15.1805 C   0  0  0  0  0  0  0  0  0  0  0  0
   15.1234  -12.4400   15.0740 N   0  0  0  0  0  0  0  0  0  0  0  0
   16.9729  -12.5046   14.0087 N   0  0  0  0  0  0  0  0  0  0  0  0
   14.4706  -12.4549   15.8108 H   0  0  0  0  0  0  0  0  0  0  0  0
  1  2  1  0  0  0
  1  6  2  0  0  0
  1 11  1  0  0  0
  2  3  2  0  0  0
  3  4  1  0  0  0
  4  5  2  0  0  0
  4  8  1  0  0  0
  5  6  1  0  0  0
  5  9  1  0  0  0
 11 12  1  0  0  0
 11 13  2  0  0  0
  7 17  1  0  0  0
  7  8  1  0  0  0
  7  9  2  0  0  0
 17 24  1  0  0  0
 18 19  1  0  0  0
 18 23  2  0  0  0
 19 20  2  0  0  0
 20 21  1  0  0  0
 21 22  2  0  0  0
 21 25  1  0  0  0
 22 23  1  0  0  0
 22 26  1  0  0  0
 24 25  1  0  0  0
 24 26  2  0  0  0
 12 14  1  0  0  0
 12 15  1  0  0  0
 13 16  1  0  0  0
  8 10  1  0  0  0
 25 27  1  0  0  0
M  END
> <minimizedAffinity>
-7.35509

$$$$
1C1U_BAI_H_410


 27 30  0  0  0  0  0  0  0  0999 V2000
   14.6455  -14.0934   20.5146 C   0  0  0  0  0  0  0  0  0  0  0  0
   15.7689  -14.7985   20.0131 C   0  0  0  0  0  0  0  0  0  0  0  0
   16.2933  -14.5603   18.7405 C   0  0  0  0  0  0  0  0  0  0  0  0
   15.6507  -13.5930   18.0061 C   0  0  0  0  0  0  0  0  0  0  0  0
   14.5866  -12.9142   18.4640 C   0  0  0  0  0  0  0  0  0  0  0  0
   14.0439  -13.1150   19.7022 C   0  0  0  0  0  0  0  0  0  0  0  0
   15.0105  -12.2446   16.4968 C   0  0  0  0  0  0  0  0  0  0  0  0
   15.8899  -13.1645   16.7994 N   0  0  0  0  0  0  0  0  0  0  0  0
   14.2112  -12.0932   17.5237 N   0  0  0  0  0  0  0  0  0  0  0  0
   16.6136  -13.4810   16.2118 H   0  0  0  0  0  0  0  0  0  0  0  0
   14.1214  -14.3565   21.7524 C   0  0  0  0  0  0  0  0  0  0  0  0
   13.9320  -15.5954   22.1221 N   0  0  0  0  0  0  0  0  0  0  0  0
   13.8331  -13.3471   22.5418 N   0  0  0  0  0  0  0  0  0  0  0  0
   14.1575  -16.3320   21.5090 H   0  0  0  0  0  0  0  0  0  0  0  0
   13.5639  -15.7923   23.0137 H   0  0  0  0  0  0  0  0  0  0  0  0
   13.9864  -12.4239   22.2363 H   0  0  0  0  0  0  0  0  0  0  0  0
   14.8981  -11.4613   15.1057 C   0  0  0  0  0  0  0  0  0  0  0  0
   18.3827  -14.4345   11.3379 C   0  0  0  0  0  0  0  0  0  0  0  0
   18.4642  -13.2111   10.6287 C   0  0  0  0  0  0  0  0  0  0  0  0
   17.7727  -12.0595   11.0783 C   0  0  0  0  0  0  0  0  0  0  0  0
   17.0283  -12.2045   12.2374 C   0  0  0  0  0  0  0  0  0  0  0  0
   16.9629  -13.3803   12.8961 C   0  0  0  0  0  0  0  0  0  0  0  0
   17.6139  -14.5328   12.5025 C   0  0  0  0  0  0  0  0  0  0  0  0
   15.8042  -11.9825   13.9455 C   0  0  0  0  0  0  0  0  0  0  0  0
   16.2953  -11.3412   12.9041 N   0  0  0  0  0  0  0  0  0  0  0  0
   16.2060  -13.2104   13.9324 N   0  0  0  0  0  0  0  0  0  0  0  0
   16.1425  -10.3971   12.6706 H   0  0  0  0  0  0  0  0  0  0  0  0
  1  2  1  0  0  0
  1  6  2  0  0  0
  1 11  1  0  0  0
  2  3  2  0  0  0
  3  4  1  0  0  0
  4  5  2  0  0  0
  4  8  1  0  0  0
  5  6  1  0  0  0
  5  9  1  0  0  0
 11 12  1  0  0  0
 11 13  2  0  0  0
  7 17  1  0  0  0
  7  8  1  0  0  0
  7  9  2  0  0  0
 17 24  1  0  0  0
 18 19  1  0  0  0
 18 23  2  0  0  0
 19 20  2  0  0  0
 20 21  1  0  0  0
 21 22  2  0  0  0
 21 25  1  0  0  0
 22 23  1  0  0  0
 22 26  1  0  0  0
 24 25  1  0  0  0
 24 26  2  0  0  0
 12 14  1  0  0  0
 12 15  1  0  0  0
 13 16  1  0  0  0
  8 10  1  0  0  0
 25 27  1  0  0  0
M  END
> <minimizedAffinity>
-7.35481

$$$$
1C1U_BAI_H_410


 27 30  0  0  0  0  0  0  0  0999 V2000
   12.2256  -13.1158   22.0164 C   0  0  0  0  0  0  0  0  0  0  0  0
   11.8861  -14.2082   21.1784 C   0  0  0  0  0  0  0  0  0  0  0  0
   12.8460  -15.0867   20.6704 C   0  0  0  0  0  0  0  0  0  0  0  0
   14.1433  -14.8254   21.0401 C   0  0  0  0  0  0  0  0  0  0  0  0
   14.4843  -13.7971   21.8332 C   0  0  0  0  0  0  0  0  0  0  0  0
   13.5772  -12.9163   22.3522 C   0  0  0  0  0  0  0  0  0  0  0  0
   16.2516  -14.8350   21.2879 C   0  0  0  0  0  0  0  0  0  0  0  0
   15.2435  -15.4450   20.7197 N   0  0  0  0  0  0  0  0  0  0  0  0
   15.7801  -13.8223   21.9725 N   0  0  0  0  0  0  0  0  0  0  0  0
   15.3060  -16.2416   20.1445 H   0  0  0  0  0  0  0  0  0  0  0  0
   11.2793  -12.2431   22.4841 C   0  0  0  0  0  0  0  0  0  0  0  0
   10.3201  -12.6844   23.2540 N   0  0  0  0  0  0  0  0  0  0  0  0
   11.3716  -10.9760   22.1510 N   0  0  0  0  0  0  0  0  0  0  0  0
   10.2762  -13.6399   23.4871 H   0  0  0  0  0  0  0  0  0  0  0  0
    9.6414  -12.0613   23.6010 H   0  0  0  0  0  0  0  0  0  0  0  0
   12.1054  -10.6722   21.5692 H   0  0  0  0  0  0  0  0  0  0  0  0
   17.7973  -15.2257   21.1481 C   0  0  0  0  0  0  0  0  0  0  0  0
   21.1267  -16.1018   25.9778 C   0  0  0  0  0  0  0  0  0  0  0  0
   20.9083  -14.7265   26.2368 C   0  0  0  0  0  0  0  0  0  0  0  0
   20.1398  -13.9305   25.3524 C   0  0  0  0  0  0  0  0  0  0  0  0
   19.6224  -14.5739   24.2402 C   0  0  0  0  0  0  0  0  0  0  0  0
   19.8449  -15.8851   24.0118 C   0  0  0  0  0  0  0  0  0  0  0  0
   20.5863  -16.7066   24.8379 C   0  0  0  0  0  0  0  0  0  0  0  0
   18.6491  -15.1482   22.4546 C   0  0  0  0  0  0  0  0  0  0  0  0
   18.8761  -14.1263   23.2555 N   0  0  0  0  0  0  0  0  0  0  0  0
   19.2387  -16.2026   22.9130 N   0  0  0  0  0  0  0  0  0  0  0  0
   18.5495  -13.2050   23.1385 H   0  0  0  0  0  0  0  0  0  0  0  0
  1  2  1  0  0  0
  1  6  2  0  0  0
  1 11  1  0  0  0
  2  3  2  0  0  0
  3  4  1  0  0  0
  4  5  2  0  0  0
  4  8  1  0  0  0
  5  6  1  0  0  0
  5  9  1  0  0  0
 11 12  1  0  0  0
 11 13  2  0  0  0
  7 17  1  0  0  0
  7  8  1  0  0  0
  7  9  2  0  0  0
 17 24  1  0  0  0
 18 19  1  0  0  0
 18 23  2  0  0  0
 19 20  2  0  0  0
 20 21  1  0  0  0
 21 22  2  0  0  0
 21 25  1  0  0  0
 22 23  1  0  0  0
 22 26  1  0  0  0
 24 25  1  0  0  0
 24 26  2  0  0  0
 12 14  1  0  0  0
 12 15  1  0  0  0
 13 16  1  0  0  0
  8 10  1  0  0  0
 25 27  1  0  0  0
M  END
> <minimizedAffinity>
-7.26011

$$$$
