5FCZ_TNX_A_601


 18 18  0  0  0  0  0  0  0  0999 V2000
   -3.5688   66.2988    9.8241 C   0  0  0  0  0  0  0  0  0  0  0  0
   -3.8793   67.5705    9.9559 C   0  0  0  0  0  0  0  0  0  0  0  0
   -5.0393   68.1596    9.1428 C   0  0  0  0  0  0  0  0  0  0  0  0
   -5.6925   66.9708    8.3964 C   0  0  0  0  0  0  0  0  0  0  0  0
   -5.8189   65.7582    9.3457 C   0  0  0  0  0  0  0  0  0  0  0  0
   -4.5754   69.1723    8.3003 O   0  0  0  0  0  0  0  0  0  0  0  0
   -6.9455   67.3759    7.9481 O   0  0  0  0  0  0  0  0  0  0  0  0
   -4.5608   65.3684    9.9292 O   0  0  0  0  0  0  0  0  0  0  0  0
   -3.8962   68.8141    7.7077 H   0  0  0  0  0  0  0  0  0  0  0  0
   -7.4893   67.6426    8.7058 H   0  0  0  0  0  0  0  0  0  0  0  0
   -6.3348   64.5599    8.5631 C   0  0  0  0  0  0  0  0  0  0  0  0
   -7.7180   64.6924    8.3759 O   0  0  0  0  0  0  0  0  0  0  0  0
   -8.1585   64.7337    9.2391 H   0  0  0  0  0  0  0  0  0  0  0  0
   -3.2872   68.3564   11.0014 N   0  0  0  0  0  0  0  0  0  0  0  0
   -2.3163   68.4904   11.0940 H   0  0  0  0  0  0  0  0  0  0  0  0
   -3.9996   70.5096   12.1594 S   0  0  0  0  0  0  0  0  0  0  0  0
   -4.1793   68.8847   11.8312 C   0  0  0  0  0  0  0  0  0  0  0  0
   -5.2592   68.0614   12.5011 C   0  0  0  0  0  0  0  0  0  0  0  0
 18 17  1  0  0  0
  6  3  1  0  0  0
  7  4  1  0  0  0
  3  4  1  0  0  0
  3  2  1  0  0  0
 17 14  1  0  0  0
 17 16  2  0  0  0
 14  2  1  0  0  0
  4  5  1  0  0  0
  2  1  2  0  0  0
  5  8  1  0  0  0
  5 11  1  0  0  0
  1  8  1  0  0  0
 11 12  1  0  0  0
 14 15  1  0  0  0
  6  9  1  0  0  0
  7 10  1  0  0  0
 12 13  1  0  0  0
M  END
> <minimizedAffinity>
-6.93060

$$$$
5FCZ_TNX_A_601


 18 18  0  0  0  0  0  0  0  0999 V2000
   -4.6255   65.5967   10.2569 C   0  0  0  0  0  0  0  0  0  0  0  0
   -5.6581   66.4120   10.2635 C   0  0  0  0  0  0  0  0  0  0  0  0
   -5.4757   67.8689   10.7083 C   0  0  0  0  0  0  0  0  0  0  0  0
   -3.9573   68.0640   10.9396 C   0  0  0  0  0  0  0  0  0  0  0  0
   -3.1602   67.3931    9.7986 C   0  0  0  0  0  0  0  0  0  0  0  0
   -6.2595   68.1338   11.8336 O   0  0  0  0  0  0  0  0  0  0  0  0
   -3.6973   69.4300   10.9828 O   0  0  0  0  0  0  0  0  0  0  0  0
   -3.4790   65.9978    9.6360 O   0  0  0  0  0  0  0  0  0  0  0  0
   -6.0112   67.5290   12.5502 H   0  0  0  0  0  0  0  0  0  0  0  0
   -3.9696   69.8376   10.1458 H   0  0  0  0  0  0  0  0  0  0  0  0
   -1.6733   67.4749   10.1097 C   0  0  0  0  0  0  0  0  0  0  0  0
   -1.3705   66.5862   11.1509 O   0  0  0  0  0  0  0  0  0  0  0  0
   -1.8832   66.8247   11.9390 H   0  0  0  0  0  0  0  0  0  0  0  0
   -6.8993   66.0141    9.6613 N   0  0  0  0  0  0  0  0  0  0  0  0
   -7.7549   65.9937   10.1480 H   0  0  0  0  0  0  0  0  0  0  0  0
   -6.3964   66.9141    7.3328 S   0  0  0  0  0  0  0  0  0  0  0  0
   -6.7786   65.6764    8.3828 C   0  0  0  0  0  0  0  0  0  0  0  0
   -7.0361   64.2709    7.8817 C   0  0  0  0  0  0  0  0  0  0  0  0
 18 17  1  0  0  0
  6  3  1  0  0  0
  7  4  1  0  0  0
  3  4  1  0  0  0
  3  2  1  0  0  0
 17 14  1  0  0  0
 17 16  2  0  0  0
 14  2  1  0  0  0
  4  5  1  0  0  0
  2  1  2  0  0  0
  5  8  1  0  0  0
  5 11  1  0  0  0
  1  8  1  0  0  0
 11 12  1  0  0  0
 14 15  1  0  0  0
  6  9  1  0  0  0
  7 10  1  0  0  0
 12 13  1  0  0  0
M  END
> <minimizedAffinity>
-5.91928

$$$$
5FCZ_TNX_A_601


 18 18  0  0  0  0  0  0  0  0999 V2000
   -3.1668   67.3876   10.5216 C   0  0  0  0  0  0  0  0  0  0  0  0
   -4.3087   66.7700   10.3081 C   0  0  0  0  0  0  0  0  0  0  0  0
   -5.5369   67.1249   11.1562 C   0  0  0  0  0  0  0  0  0  0  0  0
   -5.1170   68.3188   12.0479 C   0  0  0  0  0  0  0  0  0  0  0  0
   -4.3062   69.3378   11.2162 C   0  0  0  0  0  0  0  0  0  0  0  0
   -5.9706   66.0070   11.8725 O   0  0  0  0  0  0  0  0  0  0  0  0
   -6.2706   68.9072   12.5561 O   0  0  0  0  0  0  0  0  0  0  0  0
   -3.1594   68.7508   10.5718 O   0  0  0  0  0  0  0  0  0  0  0  0
   -5.2512   65.6867   12.4388 H   0  0  0  0  0  0  0  0  0  0  0  0
   -6.8293   69.2094   11.8231 H   0  0  0  0  0  0  0  0  0  0  0  0
   -3.7863   70.4341   12.1340 C   0  0  0  0  0  0  0  0  0  0  0  0
   -3.7268   71.6410   11.4229 O   0  0  0  0  0  0  0  0  0  0  0  0
   -3.1313   71.5400   10.6639 H   0  0  0  0  0  0  0  0  0  0  0  0
   -4.4723   65.9266    9.1577 N   0  0  0  0  0  0  0  0  0  0  0  0
   -3.8108   65.2509    8.8836 H   0  0  0  0  0  0  0  0  0  0  0  0
   -5.7157   67.6125    7.7099 S   0  0  0  0  0  0  0  0  0  0  0  0
   -5.6045   66.1484    8.5002 C   0  0  0  0  0  0  0  0  0  0  0  0
   -6.7613   65.1715    8.5134 C   0  0  0  0  0  0  0  0  0  0  0  0
 18 17  1  0  0  0
  6  3  1  0  0  0
  7  4  1  0  0  0
  3  4  1  0  0  0
  3  2  1  0  0  0
 17 14  1  0  0  0
 17 16  2  0  0  0
 14  2  1  0  0  0
  4  5  1  0  0  0
  2  1  2  0  0  0
  5  8  1  0  0  0
  5 11  1  0  0  0
  1  8  1  0  0  0
 11 12  1  0  0  0
 14 15  1  0  0  0
  6  9  1  0  0  0
  7 10  1  0  0  0
 12 13  1  0  0  0
M  END
> <minimizedAffinity>
-5.90238

$$$$
5FCZ_TNX_A_601


 18 18  0  0  0  0  0  0  0  0999 V2000
   -5.5327   68.9305    9.5324 C   0  0  0  0  0  0  0  0  0  0  0  0
   -5.0084   68.0432   10.3503 C   0  0  0  0  0  0  0  0  0  0  0  0
   -5.3710   66.5602   10.1993 C   0  0  0  0  0  0  0  0  0  0  0  0
   -6.2459   66.4559    8.9263 C   0  0  0  0  0  0  0  0  0  0  0  0
   -5.6441   67.3266    7.8006 C   0  0  0  0  0  0  0  0  0  0  0  0
   -5.9970   66.0940   11.3575 O   0  0  0  0  0  0  0  0  0  0  0  0
   -6.2936   65.1199    8.5412 O   0  0  0  0  0  0  0  0  0  0  0  0
   -5.4661   68.7022    8.1892 O   0  0  0  0  0  0  0  0  0  0  0  0
   -6.7938   66.6200   11.5285 H   0  0  0  0  0  0  0  0  0  0  0  0
   -5.3945   64.8023    8.3636 H   0  0  0  0  0  0  0  0  0  0  0  0
   -6.5848   67.3217    6.6051 C   0  0  0  0  0  0  0  0  0  0  0  0
   -6.3740   68.4826    5.8477 O   0  0  0  0  0  0  0  0  0  0  0  0
   -6.5473   69.2629    6.3972 H   0  0  0  0  0  0  0  0  0  0  0  0
   -3.9448   68.4168   11.2394 N   0  0  0  0  0  0  0  0  0  0  0  0
   -3.0124   68.1239   11.1209 H   0  0  0  0  0  0  0  0  0  0  0  0
   -3.7545   70.7566   12.2264 S   0  0  0  0  0  0  0  0  0  0  0  0
   -4.3436   69.1966   12.2375 C   0  0  0  0  0  0  0  0  0  0  0  0
   -5.2247   68.6963   13.3628 C   0  0  0  0  0  0  0  0  0  0  0  0
 18 17  1  0  0  0
  6  3  1  0  0  0
  7  4  1  0  0  0
  3  4  1  0  0  0
  3  2  1  0  0  0
 17 14  1  0  0  0
 17 16  2  0  0  0
 14  2  1  0  0  0
  4  5  1  0  0  0
  2  1  2  0  0  0
  5  8  1  0  0  0
  5 11  1  0  0  0
  1  8  1  0  0  0
 11 12  1  0  0  0
 14 15  1  0  0  0
  6  9  1  0  0  0
  7 10  1  0  0  0
 12 13  1  0  0  0
M  END
> <minimizedAffinity>
-5.58706

$$$$
5FCZ_TNX_A_601


 18 18  0  0  0  0  0  0  0  0999 V2000
   -5.6422   66.9675   11.7461 C   0  0  0  0  0  0  0  0  0  0  0  0
   -5.5311   68.2777   11.7916 C   0  0  0  0  0  0  0  0  0  0  0  0
   -4.8845   69.0285   10.6202 C   0  0  0  0  0  0  0  0  0  0  0  0
   -4.6138   67.9695    9.5238 C   0  0  0  0  0  0  0  0  0  0  0  0
   -5.8300   67.0257    9.3912 C   0  0  0  0  0  0  0  0  0  0  0  0
   -3.7408   69.7049   11.0503 O   0  0  0  0  0  0  0  0  0  0  0  0
   -4.3769   68.6362    8.3260 O   0  0  0  0  0  0  0  0  0  0  0  0
   -6.1897   66.3953   10.6354 O   0  0  0  0  0  0  0  0  0  0  0  0
   -3.1138   69.0701   11.4310 H   0  0  0  0  0  0  0  0  0  0  0  0
   -5.1510   69.1738    8.0966 H   0  0  0  0  0  0  0  0  0  0  0  0
   -5.4963   65.9121    8.4100 C   0  0  0  0  0  0  0  0  0  0  0  0
   -6.6302   65.6229    7.6378 O   0  0  0  0  0  0  0  0  0  0  0  0
   -7.3538   65.3409    8.2189 H   0  0  0  0  0  0  0  0  0  0  0  0
   -6.1949   69.0259   12.8216 N   0  0  0  0  0  0  0  0  0  0  0  0
   -6.9524   69.6305   12.6486 H   0  0  0  0  0  0  0  0  0  0  0  0
   -4.4035   69.7980   14.4586 S   0  0  0  0  0  0  0  0  0  0  0  0
   -5.6857   68.8214   14.0308 C   0  0  0  0  0  0  0  0  0  0  0  0
   -6.1823   67.7267   14.9515 C   0  0  0  0  0  0  0  0  0  0  0  0
 18 17  1  0  0  0
  6  3  1  0  0  0
  7  4  1  0  0  0
  3  4  1  0  0  0
  3  2  1  0  0  0
 17 14  1  0  0  0
 17 16  2  0  0  0
 14  2  1  0  0  0
  4  5  1  0  0  0
  2  1  2  0  0  0
  5  8  1  0  0  0
  5 11  1  0  0  0
  1  8  1  0  0  0
 11 12  1  0  0  0
 14 15  1  0  0  0
  6  9  1  0  0  0
  7 10  1  0  0  0
 12 13  1  0  0  0
M  END
> <minimizedAffinity>
-5.40854

$$$$
5FCZ_TNX_A_601


 18 18  0  0  0  0  0  0  0  0999 V2000
   -4.0271   68.9127   11.2106 C   0  0  0  0  0  0  0  0  0  0  0  0
   -5.2369   68.4488   11.4394 C   0  0  0  0  0  0  0  0  0  0  0  0
   -5.8483   68.5740   12.8409 C   0  0  0  0  0  0  0  0  0  0  0  0
   -4.8443   69.4028   13.6787 C   0  0  0  0  0  0  0  0  0  0  0  0
   -4.3196   70.5936   12.8455 C   0  0  0  0  0  0  0  0  0  0  0  0
   -6.1173   67.3085   13.3670 O   0  0  0  0  0  0  0  0  0  0  0  0
   -5.5000   69.8534   14.8200 O   0  0  0  0  0  0  0  0  0  0  0  0
   -3.7315   70.1877   11.5947 O   0  0  0  0  0  0  0  0  0  0  0  0
   -5.2971   66.7919   13.4021 H   0  0  0  0  0  0  0  0  0  0  0  0
   -6.2601   70.3982   14.5623 H   0  0  0  0  0  0  0  0  0  0  0  0
   -3.2360   71.3169   13.6310 C   0  0  0  0  0  0  0  0  0  0  0  0
   -2.7372   70.4615   14.6236 O   0  0  0  0  0  0  0  0  0  0  0  0
   -3.4573   70.2041   15.2203 H   0  0  0  0  0  0  0  0  0  0  0  0
   -6.0675   68.0220   10.3488 N   0  0  0  0  0  0  0  0  0  0  0  0
   -6.9330   68.4384   10.1327 H   0  0  0  0  0  0  0  0  0  0  0  0
   -5.2702   67.2951    8.0421 S   0  0  0  0  0  0  0  0  0  0  0  0
   -5.5523   67.0099    9.6606 C   0  0  0  0  0  0  0  0  0  0  0  0
   -5.2943   65.6510   10.2768 C   0  0  0  0  0  0  0  0  0  0  0  0
 18 17  1  0  0  0
  6  3  1  0  0  0
  7  4  1  0  0  0
  3  4  1  0  0  0
  3  2  1  0  0  0
 17 14  1  0  0  0
 17 16  2  0  0  0
 14  2  1  0  0  0
  4  5  1  0  0  0
  2  1  2  0  0  0
  5  8  1  0  0  0
  5 11  1  0  0  0
  1  8  1  0  0  0
 11 12  1  0  0  0
 14 15  1  0  0  0
  6  9  1  0  0  0
  7 10  1  0  0  0
 12 13  1  0  0  0
M  END
> <minimizedAffinity>
-5.38879

$$$$
5FCZ_TNX_A_601


 18 18  0  0  0  0  0  0  0  0999 V2000
   -3.9869   69.8482   11.4642 C   0  0  0  0  0  0  0  0  0  0  0  0
   -4.4836   69.3509   12.5764 C   0  0  0  0  0  0  0  0  0  0  0  0
   -5.4111   68.1302   12.5174 C   0  0  0  0  0  0  0  0  0  0  0  0
   -5.4309   67.6725   11.0386 C   0  0  0  0  0  0  0  0  0  0  0  0
   -4.0003   67.7110   10.4561 C   0  0  0  0  0  0  0  0  0  0  0  0
   -6.6703   68.4533   13.0280 O   0  0  0  0  0  0  0  0  0  0  0  0
   -5.9455   66.3809   10.9912 O   0  0  0  0  0  0  0  0  0  0  0  0
   -3.3763   69.0030   10.5847 O   0  0  0  0  0  0  0  0  0  0  0  0
   -7.0471   69.1877   12.5186 H   0  0  0  0  0  0  0  0  0  0  0  0
   -5.3884   65.7912   11.5230 H   0  0  0  0  0  0  0  0  0  0  0  0
   -4.0548   67.3909    8.9698 C   0  0  0  0  0  0  0  0  0  0  0  0
   -4.1370   68.5872    8.2432 O   0  0  0  0  0  0  0  0  0  0  0  0
   -4.9374   69.0692    8.5036 H   0  0  0  0  0  0  0  0  0  0  0  0
   -4.0015   69.8029   13.8510 N   0  0  0  0  0  0  0  0  0  0  0  0
   -3.5869   69.2062   14.5153 H   0  0  0  0  0  0  0  0  0  0  0  0
   -2.7902   71.9799   14.3784 S   0  0  0  0  0  0  0  0  0  0  0  0
   -4.1704   71.1057   14.0448 C   0  0  0  0  0  0  0  0  0  0  0  0
   -5.5347   71.7626   14.0350 C   0  0  0  0  0  0  0  0  0  0  0  0
 18 17  1  0  0  0
  6  3  1  0  0  0
  7  4  1  0  0  0
  3  4  1  0  0  0
  3  2  1  0  0  0
 17 14  1  0  0  0
 17 16  2  0  0  0
 14  2  1  0  0  0
  4  5  1  0  0  0
  2  1  2  0  0  0
  5  8  1  0  0  0
  5 11  1  0  0  0
  1  8  1  0  0  0
 11 12  1  0  0  0
 14 15  1  0  0  0
  6  9  1  0  0  0
  7 10  1  0  0  0
 12 13  1  0  0  0
M  END
> <minimizedAffinity>
-5.34618

$$$$
5FCZ_TNX_A_601


 18 18  0  0  0  0  0  0  0  0999 V2000
   -5.3994   67.6822   11.5233 C   0  0  0  0  0  0  0  0  0  0  0  0
   -4.2129   68.2222   11.7011 C   0  0  0  0  0  0  0  0  0  0  0  0
   -3.2182   68.2767   10.5343 C   0  0  0  0  0  0  0  0  0  0  0  0
   -3.9770   67.7463    9.2934 C   0  0  0  0  0  0  0  0  0  0  0  0
   -5.4026   68.3407    9.2538 C   0  0  0  0  0  0  0  0  0  0  0  0
   -2.0651   67.5529   10.8463 O   0  0  0  0  0  0  0  0  0  0  0  0
   -3.2609   68.1122    8.1582 O   0  0  0  0  0  0  0  0  0  0  0  0
   -6.1501   68.0875   10.4589 O   0  0  0  0  0  0  0  0  0  0  0  0
   -2.3038   66.6336   11.0430 H   0  0  0  0  0  0  0  0  0  0  0  0
   -3.1829   69.0784    8.1226 H   0  0  0  0  0  0  0  0  0  0  0  0
   -6.1789   67.7072    8.1091 C   0  0  0  0  0  0  0  0  0  0  0  0
   -5.7592   68.2746    6.8977 O   0  0  0  0  0  0  0  0  0  0  0  0
   -5.9231   69.2305    6.9145 H   0  0  0  0  0  0  0  0  0  0  0  0
   -3.9195   68.9465   12.9056 N   0  0  0  0  0  0  0  0  0  0  0  0
   -3.3982   68.5691   13.6506 H   0  0  0  0  0  0  0  0  0  0  0  0
   -5.7110   70.4313   13.9402 S   0  0  0  0  0  0  0  0  0  0  0  0
   -4.4211   70.1760   12.9148 C   0  0  0  0  0  0  0  0  0  0  0  0
   -3.9092   71.2735   12.0059 C   0  0  0  0  0  0  0  0  0  0  0  0
 18 17  1  0  0  0
  6  3  1  0  0  0
  7  4  1  0  0  0
  3  4  1  0  0  0
  3  2  1  0  0  0
 17 14  1  0  0  0
 17 16  2  0  0  0
 14  2  1  0  0  0
  4  5  1  0  0  0
  2  1  2  0  0  0
  5  8  1  0  0  0
  5 11  1  0  0  0
  1  8  1  0  0  0
 11 12  1  0  0  0
 14 15  1  0  0  0
  6  9  1  0  0  0
  7 10  1  0  0  0
 12 13  1  0  0  0
M  END
> <minimizedAffinity>
-5.24159

$$$$
5FCZ_TNX_A_601


 18 18  0  0  0  0  0  0  0  0999 V2000
   -5.8128   68.4877   11.0731 C   0  0  0  0  0  0  0  0  0  0  0  0
   -4.5973   68.9523   10.8785 C   0  0  0  0  0  0  0  0  0  0  0  0
   -3.8810   69.7075   12.0056 C   0  0  0  0  0  0  0  0  0  0  0  0
   -4.8055   69.6155   13.2441 C   0  0  0  0  0  0  0  0  0  0  0  0
   -5.3706   68.1834   13.3744 C   0  0  0  0  0  0  0  0  0  0  0  0
   -3.5949   71.0152   11.6072 O   0  0  0  0  0  0  0  0  0  0  0  0
   -4.0589   69.9528   14.3685 O   0  0  0  0  0  0  0  0  0  0  0  0
   -6.0573   67.7407   12.1879 O   0  0  0  0  0  0  0  0  0  0  0  0
   -4.4189   71.4681   11.3687 H   0  0  0  0  0  0  0  0  0  0  0  0
   -3.3110   69.3412   14.4554 H   0  0  0  0  0  0  0  0  0  0  0  0
   -6.3802   68.1438   14.5118 C   0  0  0  0  0  0  0  0  0  0  0  0
   -6.9760   69.4061   14.6435 O   0  0  0  0  0  0  0  0  0  0  0  0
   -6.2929   70.0676   14.8352 H   0  0  0  0  0  0  0  0  0  0  0  0
   -3.8577   68.5785    9.7061 N   0  0  0  0  0  0  0  0  0  0  0  0
   -3.2209   69.1779    9.2540 H   0  0  0  0  0  0  0  0  0  0  0  0
   -3.3137   66.1206   10.0899 S   0  0  0  0  0  0  0  0  0  0  0  0
   -4.1181   67.3440    9.2919 C   0  0  0  0  0  0  0  0  0  0  0  0
   -5.0345   67.0511    8.1227 C   0  0  0  0  0  0  0  0  0  0  0  0
 18 17  1  0  0  0
  6  3  1  0  0  0
  7  4  1  0  0  0
  3  4  1  0  0  0
  3  2  1  0  0  0
 17 14  1  0  0  0
 17 16  2  0  0  0
 14  2  1  0  0  0
  4  5  1  0  0  0
  2  1  2  0  0  0
  5  8  1  0  0  0
  5 11  1  0  0  0
  1  8  1  0  0  0
 11 12  1  0  0  0
 14 15  1  0  0  0
  6  9  1  0  0  0
  7 10  1  0  0  0
 12 13  1  0  0  0
M  END
> <minimizedAffinity>
-5.09624

$$$$
5FCZ_TNX_A_601


 18 18  0  0  0  0  0  0  0  0999 V2000
   -6.0693   67.0804   10.9502 C   0  0  0  0  0  0  0  0  0  0  0  0
   -5.2431   67.2315    9.9374 C   0  0  0  0  0  0  0  0  0  0  0  0
   -4.3582   68.4821    9.8562 C   0  0  0  0  0  0  0  0  0  0  0  0
   -4.5913   69.2636   11.1722 C   0  0  0  0  0  0  0  0  0  0  0  0
   -4.6135   68.2860   12.3685 C   0  0  0  0  0  0  0  0  0  0  0  0
   -4.6553   69.2119    8.7029 O   0  0  0  0  0  0  0  0  0  0  0  0
   -3.5632   70.1899   11.3143 O   0  0  0  0  0  0  0  0  0  0  0  0
   -5.5871   67.2352   12.2169 O   0  0  0  0  0  0  0  0  0  0  0  0
   -5.5925   69.4621    8.7111 H   0  0  0  0  0  0  0  0  0  0  0  0
   -2.7115   69.7264   11.3396 H   0  0  0  0  0  0  0  0  0  0  0  0
   -4.9778   69.0489   13.6333 C   0  0  0  0  0  0  0  0  0  0  0  0
   -5.6681   70.2181   13.2838 O   0  0  0  0  0  0  0  0  0  0  0  0
   -5.1041   70.7702   12.7198 H   0  0  0  0  0  0  0  0  0  0  0  0
   -5.0081   66.1472    9.0261 N   0  0  0  0  0  0  0  0  0  0  0  0
   -4.1861   65.6052    9.0304 H   0  0  0  0  0  0  0  0  0  0  0  0
   -6.7002   64.4306    8.2049 S   0  0  0  0  0  0  0  0  0  0  0  0
   -6.0093   65.9479    8.1770 C   0  0  0  0  0  0  0  0  0  0  0  0
   -6.4639   67.0013    7.1888 C   0  0  0  0  0  0  0  0  0  0  0  0
 18 17  1  0  0  0
  6  3  1  0  0  0
  7  4  1  0  0  0
  3  4  1  0  0  0
  3  2  1  0  0  0
 17 14  1  0  0  0
 17 16  2  0  0  0
 14  2  1  0  0  0
  4  5  1  0  0  0
  2  1  2  0  0  0
  5  8  1  0  0  0
  5 11  1  0  0  0
  1  8  1  0  0  0
 11 12  1  0  0  0
 14 15  1  0  0  0
  6  9  1  0  0  0
  7 10  1  0  0  0
 12 13  1  0  0  0
M  END
> <minimizedAffinity>
-4.97814

$$$$
