4IBG_1D6_A_401


 38 42  0  0  0  0  0  0  0  0999 V2000
    3.7755   20.4937    1.0749 C   0  0  0  0  0  0  0  0  0  0  0  0
    3.6437   19.1669    0.6480 C   0  0  0  0  0  0  0  0  0  0  0  0
    4.6033   18.1147    0.7264 O   0  0  0  0  0  0  0  0  0  0  0  0
    2.3729   19.0579    0.1194 C   0  0  0  0  0  0  0  0  0  0  0  0
    1.8367   17.8999   -0.4186 O   0  0  0  0  0  0  0  0  0  0  0  0
    1.7698   20.2513    0.2216 N   0  0  0  0  0  0  0  0  0  0  0  0
    2.5697   21.1457    0.8266 C   0  0  0  0  0  0  0  0  0  0  0  0
    4.3909   17.2618    0.4019 H   0  0  0  0  0  0  0  0  0  0  0  0
    2.0009   21.8592    2.0191 C   0  0  0  0  0  0  0  0  0  0  0  0
    1.8251   21.0729    3.1622 C   0  0  0  0  0  0  0  0  0  0  0  0
    1.3193   21.6436    4.3068 C   0  0  0  0  0  0  0  0  0  0  0  0
    1.0293   21.1644    5.5542 O   0  0  0  0  0  0  0  0  0  0  0  0
    0.5610   22.1700    6.2962 C   0  0  0  0  0  0  0  0  0  0  0  0
    0.5239   23.2831    5.5754 O   0  0  0  0  0  0  0  0  0  0  0  0
    0.9914   23.0088    4.3179 C   0  0  0  0  0  0  0  0  0  0  0  0
    1.1722   23.7963    3.1944 C   0  0  0  0  0  0  0  0  0  0  0  0
    0.7584   25.4673    3.2738 Cl  0  0  0  0  0  0  0  0  0  0  0  0
    1.6858   23.2114    2.0196 C   0  0  0  0  0  0  0  0  0  0  0  0
    0.4470   20.5580   -0.3497 C   0  0  0  0  0  0  0  0  0  0  0  0
   -0.7118   20.0216    0.2311 C   0  0  0  0  0  0  0  0  0  0  0  0
   -1.9606   20.3237   -0.3207 C   0  0  0  0  0  0  0  0  0  0  0  0
   -2.0304   21.1621   -1.4505 C   0  0  0  0  0  0  0  0  0  0  0  0
   -0.8929   21.7015   -2.0191 C   0  0  0  0  0  0  0  0  0  0  0  0
    0.3657   21.3884   -1.4743 C   0  0  0  0  0  0  0  0  0  0  0  0
   -3.3503   21.5163   -2.0616 C   0  0  0  0  0  0  0  0  0  0  0  0
   -4.2085   20.3507   -2.3090 C   0  0  0  0  0  0  0  0  0  0  0  0
   -3.9461   19.5757   -3.2542 O   0  0  0  0  0  0  0  0  0  0  0  0
   -5.2150   20.1518   -1.5794 O   0  0  0  0  0  0  0  0  0  0  0  0
   -3.1950   19.7308   -3.7925 H   0  0  0  0  0  0  0  0  0  0  0  0
    5.0078   21.2176    1.5833 C   0  0  0  0  0  0  0  0  0  0  0  0
    5.2874   22.2860    1.0316 O   0  0  0  0  0  0  0  0  0  0  0  0
    9.5012   20.9228    3.6796 C   0  0  0  0  0  0  0  0  0  0  0  0
    8.0316   20.5927    3.7290 C   0  0  0  0  0  0  0  0  0  0  0  0
    7.2147   21.0171    2.7045 C   0  0  0  0  0  0  0  0  0  0  0  0
    7.4935   19.8772    4.7812 C   0  0  0  0  0  0  0  0  0  0  0  0
    6.1312   19.5852    4.8015 C   0  0  0  0  0  0  0  0  0  0  0  0
    5.3189   20.0217    3.7713 C   0  0  0  0  0  0  0  0  0  0  0  0
    5.8601   20.7202    2.7149 C   0  0  0  0  0  0  0  0  0  0  0  0
 28 26  2  0  0  0
 26 27  1  0  0  0
 26 25  1  0  0  0
 25 22  1  0  0  0
 21 22  2  0  0  0
 21 20  1  0  0  0
 22 23  1  0  0  0
 20 19  2  0  0  0
 23 24  2  0  0  0
 19 24  1  0  0  0
 19  6  1  0  0  0
  5  4  2  0  0  0
  6  4  1  0  0  0
  6  7  1  0  0  0
  4  2  1  0  0  0
  7  1  1  0  0  0
  7  9  1  0  0  0
  2  1  2  0  0  0
  2  3  1  0  0  0
  1 30  1  0  0  0
 31 30  2  0  0  0
 18  9  2  0  0  0
 18 16  1  0  0  0
  9 10  1  0  0  0
 30 38  1  0  0  0
 17 16  1  0  0  0
 16 15  2  0  0  0
 34 38  2  0  0  0
 34 33  1  0  0  0
 38 37  1  0  0  0
 10 11  2  0  0  0
 32 33  1  0  0  0
 15 11  1  0  0  0
 15 14  1  0  0  0
 33 35  2  0  0  0
 11 12  1  0  0  0
 37 36  2  0  0  0
 35 36  1  0  0  0
 14 13  1  0  0  0
 12 13  1  0  0  0
  3  8  1  0  0  0
 27 29  1  0  0  0
M  END
> <minimizedAffinity>
-7.89705

$$$$
4IBG_1D6_A_401


 38 42  0  0  0  0  0  0  0  0999 V2000
    1.6255   23.2947    2.7540 C   0  0  0  0  0  0  0  0  0  0  0  0
    0.8968   24.3973    3.2156 C   0  0  0  0  0  0  0  0  0  0  0  0
    1.0157   25.7624    2.8202 O   0  0  0  0  0  0  0  0  0  0  0  0
    0.0118   23.9069    4.1551 C   0  0  0  0  0  0  0  0  0  0  0  0
   -0.8999   24.6751    4.8597 O   0  0  0  0  0  0  0  0  0  0  0  0
    0.1944   22.5821    4.2554 N   0  0  0  0  0  0  0  0  0  0  0  0
    1.1400   22.1595    3.3992 C   0  0  0  0  0  0  0  0  0  0  0  0
    0.4636   26.4124    3.2084 H   0  0  0  0  0  0  0  0  0  0  0  0
    0.7572   21.0427    2.4712 C   0  0  0  0  0  0  0  0  0  0  0  0
   -0.0614   21.4075    1.3977 C   0  0  0  0  0  0  0  0  0  0  0  0
   -0.4543   20.4526    0.4893 C   0  0  0  0  0  0  0  0  0  0  0  0
   -1.2337   20.4794   -0.6339 O   0  0  0  0  0  0  0  0  0  0  0  0
   -1.2773   19.2490   -1.1491 C   0  0  0  0  0  0  0  0  0  0  0  0
   -0.5655   18.4197   -0.3969 O   0  0  0  0  0  0  0  0  0  0  0  0
   -0.0251   19.1248    0.6451 C   0  0  0  0  0  0  0  0  0  0  0  0
    0.7937   18.7575    1.6986 C   0  0  0  0  0  0  0  0  0  0  0  0
    1.2935   17.1135    1.8304 Cl  0  0  0  0  0  0  0  0  0  0  0  0
    1.1929   19.7343    2.6326 C   0  0  0  0  0  0  0  0  0  0  0  0
   -0.4823   21.7296    5.2480 C   0  0  0  0  0  0  0  0  0  0  0  0
   -1.7966   21.2944    5.0225 C   0  0  0  0  0  0  0  0  0  0  0  0
   -2.4251   20.4834    5.9726 C   0  0  0  0  0  0  0  0  0  0  0  0
   -1.7247   20.1189    7.1392 C   0  0  0  0  0  0  0  0  0  0  0  0
   -0.4265   20.5359    7.3604 C   0  0  0  0  0  0  0  0  0  0  0  0
    0.2034   21.3629    6.4127 C   0  0  0  0  0  0  0  0  0  0  0  0
   -2.3612   19.2430    8.1730 C   0  0  0  0  0  0  0  0  0  0  0  0
   -3.8287   19.2926    8.1540 C   0  0  0  0  0  0  0  0  0  0  0  0
   -4.4197   20.3325    8.5174 O   0  0  0  0  0  0  0  0  0  0  0  0
   -4.4819   18.2793    7.7913 O   0  0  0  0  0  0  0  0  0  0  0  0
   -3.9261   21.0824    8.7859 H   0  0  0  0  0  0  0  0  0  0  0  0
    2.8355   23.2619    1.8397 C   0  0  0  0  0  0  0  0  0  0  0  0
    3.0251   24.2603    1.1387 O   0  0  0  0  0  0  0  0  0  0  0  0
    6.4276   20.6267    4.0362 C   0  0  0  0  0  0  0  0  0  0  0  0
    5.5268   20.8368    2.8464 C   0  0  0  0  0  0  0  0  0  0  0  0
    4.6355   21.8868    2.8579 C   0  0  0  0  0  0  0  0  0  0  0  0
    5.5791   19.9959    1.7516 C   0  0  0  0  0  0  0  0  0  0  0  0
    4.7352   20.2135    0.6643 C   0  0  0  0  0  0  0  0  0  0  0  0
    3.8395   21.2665    0.6889 C   0  0  0  0  0  0  0  0  0  0  0  0
    3.8007   22.1137    1.7740 C   0  0  0  0  0  0  0  0  0  0  0  0
 28 26  2  0  0  0
 26 27  1  0  0  0
 26 25  1  0  0  0
 25 22  1  0  0  0
 21 22  2  0  0  0
 21 20  1  0  0  0
 22 23  1  0  0  0
 20 19  2  0  0  0
 23 24  2  0  0  0
 19 24  1  0  0  0
 19  6  1  0  0  0
  5  4  2  0  0  0
  6  4  1  0  0  0
  6  7  1  0  0  0
  4  2  1  0  0  0
  7  1  1  0  0  0
  7  9  1  0  0  0
  2  1  2  0  0  0
  2  3  1  0  0  0
  1 30  1  0  0  0
 31 30  2  0  0  0
 18  9  2  0  0  0
 18 16  1  0  0  0
  9 10  1  0  0  0
 30 38  1  0  0  0
 17 16  1  0  0  0
 16 15  2  0  0  0
 34 38  2  0  0  0
 34 33  1  0  0  0
 38 37  1  0  0  0
 10 11  2  0  0  0
 32 33  1  0  0  0
 15 11  1  0  0  0
 15 14  1  0  0  0
 33 35  2  0  0  0
 11 12  1  0  0  0
 37 36  2  0  0  0
 35 36  1  0  0  0
 14 13  1  0  0  0
 12 13  1  0  0  0
  3  8  1  0  0  0
 27 29  1  0  0  0
M  END
> <minimizedAffinity>
-7.89582

$$$$
4IBG_1D6_A_401


 38 42  0  0  0  0  0  0  0  0999 V2000
    1.2050   19.9257    0.5948 C   0  0  0  0  0  0  0  0  0  0  0  0
    2.0620   19.4901   -0.4229 C   0  0  0  0  0  0  0  0  0  0  0  0
    1.7223   19.0626   -1.7405 O   0  0  0  0  0  0  0  0  0  0  0  0
    3.3393   19.5514    0.0978 C   0  0  0  0  0  0  0  0  0  0  0  0
    4.4908   19.2033   -0.5883 O   0  0  0  0  0  0  0  0  0  0  0  0
    3.2593   19.9996    1.3592 N   0  0  0  0  0  0  0  0  0  0  0  0
    1.9870   20.2732    1.6941 C   0  0  0  0  0  0  0  0  0  0  0  0
    2.3956   18.7924   -2.3335 H   0  0  0  0  0  0  0  0  0  0  0  0
    1.7132   21.6483    2.2318 C   0  0  0  0  0  0  0  0  0  0  0  0
    2.0244   22.7038    1.3687 C   0  0  0  0  0  0  0  0  0  0  0  0
    1.7973   23.9989    1.7718 C   0  0  0  0  0  0  0  0  0  0  0  0
    1.9913   25.2195    1.1867 O   0  0  0  0  0  0  0  0  0  0  0  0
    1.5812   26.1657    2.0339 C   0  0  0  0  0  0  0  0  0  0  0  0
    1.1387   25.6077    3.1532 O   0  0  0  0  0  0  0  0  0  0  0  0
    1.2503   24.2475    3.0408 C   0  0  0  0  0  0  0  0  0  0  0  0
    0.9297   23.2085    3.8968 C   0  0  0  0  0  0  0  0  0  0  0  0
    0.2533   23.5783    5.4381 Cl  0  0  0  0  0  0  0  0  0  0  0  0
    1.1666   21.8812    3.4866 C   0  0  0  0  0  0  0  0  0  0  0  0
    4.4064   20.0788    2.2800 C   0  0  0  0  0  0  0  0  0  0  0  0
    4.6164   19.0692    3.2310 C   0  0  0  0  0  0  0  0  0  0  0  0
    5.7111   19.1567    4.0967 C   0  0  0  0  0  0  0  0  0  0  0  0
    6.5828   20.2586    3.9962 C   0  0  0  0  0  0  0  0  0  0  0  0
    6.3865   21.2495    3.0541 C   0  0  0  0  0  0  0  0  0  0  0  0
    5.2784   21.1709    2.1910 C   0  0  0  0  0  0  0  0  0  0  0  0
    7.7713   20.3802    4.8985 C   0  0  0  0  0  0  0  0  0  0  0  0
    9.0523   20.2273    4.1973 C   0  0  0  0  0  0  0  0  0  0  0  0
    9.2564   19.2167    3.4901 O   0  0  0  0  0  0  0  0  0  0  0  0
    9.9443   21.1057    4.3300 O   0  0  0  0  0  0  0  0  0  0  0  0
    8.5873   18.5675    3.3965 H   0  0  0  0  0  0  0  0  0  0  0  0
   -0.3111   19.9128    0.6402 C   0  0  0  0  0  0  0  0  0  0  0  0
   -0.8296   19.3715    1.6212 O   0  0  0  0  0  0  0  0  0  0  0  0
   -4.8309   20.4050   -1.3601 C   0  0  0  0  0  0  0  0  0  0  0  0
   -3.3715   20.7810   -1.3643 C   0  0  0  0  0  0  0  0  0  0  0  0
   -2.5326   20.2207   -0.4266 C   0  0  0  0  0  0  0  0  0  0  0  0
   -2.8654   21.6758   -2.2872 C   0  0  0  0  0  0  0  0  0  0  0  0
   -1.5116   22.0053   -2.2690 C   0  0  0  0  0  0  0  0  0  0  0  0
   -0.6795   21.4422   -1.3192 C   0  0  0  0  0  0  0  0  0  0  0  0
   -1.1826   20.5377   -0.4107 C   0  0  0  0  0  0  0  0  0  0  0  0
 28 26  2  0  0  0
 26 27  1  0  0  0
 26 25  1  0  0  0
 25 22  1  0  0  0
 21 22  2  0  0  0
 21 20  1  0  0  0
 22 23  1  0  0  0
 20 19  2  0  0  0
 23 24  2  0  0  0
 19 24  1  0  0  0
 19  6  1  0  0  0
  5  4  2  0  0  0
  6  4  1  0  0  0
  6  7  1  0  0  0
  4  2  1  0  0  0
  7  1  1  0  0  0
  7  9  1  0  0  0
  2  1  2  0  0  0
  2  3  1  0  0  0
  1 30  1  0  0  0
 31 30  2  0  0  0
 18  9  2  0  0  0
 18 16  1  0  0  0
  9 10  1  0  0  0
 30 38  1  0  0  0
 17 16  1  0  0  0
 16 15  2  0  0  0
 34 38  2  0  0  0
 34 33  1  0  0  0
 38 37  1  0  0  0
 10 11  2  0  0  0
 32 33  1  0  0  0
 15 11  1  0  0  0
 15 14  1  0  0  0
 33 35  2  0  0  0
 11 12  1  0  0  0
 37 36  2  0  0  0
 35 36  1  0  0  0
 14 13  1  0  0  0
 12 13  1  0  0  0
  3  8  1  0  0  0
 27 29  1  0  0  0
M  END
> <minimizedAffinity>
-7.87257

$$$$
4IBG_1D6_A_401


 38 42  0  0  0  0  0  0  0  0999 V2000
    1.2628   20.4672    2.9038 C   0  0  0  0  0  0  0  0  0  0  0  0
    1.8425   19.4778    3.7068 C   0  0  0  0  0  0  0  0  0  0  0  0
    1.3692   18.9585    4.9480 O   0  0  0  0  0  0  0  0  0  0  0  0
    2.9949   19.0822    3.0573 C   0  0  0  0  0  0  0  0  0  0  0  0
    3.8705   18.1137    3.5191 O   0  0  0  0  0  0  0  0  0  0  0  0
    3.1054   19.7919    1.9247 N   0  0  0  0  0  0  0  0  0  0  0  0
    2.0593   20.6213    1.7713 C   0  0  0  0  0  0  0  0  0  0  0  0
    1.8539   18.2906    5.3917 H   0  0  0  0  0  0  0  0  0  0  0  0
    1.3079   20.5243    0.4748 C   0  0  0  0  0  0  0  0  0  0  0  0
    1.1788   21.7219   -0.2357 C   0  0  0  0  0  0  0  0  0  0  0  0
    0.5150   21.7278   -1.4402 C   0  0  0  0  0  0  0  0  0  0  0  0
    0.2189   22.7025   -2.3524 O   0  0  0  0  0  0  0  0  0  0  0  0
   -0.4481   22.1462   -3.3657 C   0  0  0  0  0  0  0  0  0  0  0  0
   -0.6078   20.8483   -3.1420 O   0  0  0  0  0  0  0  0  0  0  0  0
   -0.0198   20.5323   -1.9464 C   0  0  0  0  0  0  0  0  0  0  0  0
    0.1127   19.3409   -1.2548 C   0  0  0  0  0  0  0  0  0  0  0  0
   -0.5584   17.9058   -1.9328 Cl  0  0  0  0  0  0  0  0  0  0  0  0
    0.7885   19.3348   -0.0182 C   0  0  0  0  0  0  0  0  0  0  0  0
    4.2732   19.7371    1.0284 C   0  0  0  0  0  0  0  0  0  0  0  0
    5.2613   20.7303    1.0988 C   0  0  0  0  0  0  0  0  0  0  0  0
    6.3655   20.6636    0.2433 C   0  0  0  0  0  0  0  0  0  0  0  0
    6.4637   19.5987   -0.6735 C   0  0  0  0  0  0  0  0  0  0  0  0
    5.4988   18.6125   -0.7388 C   0  0  0  0  0  0  0  0  0  0  0  0
    4.3802   18.6844    0.1113 C   0  0  0  0  0  0  0  0  0  0  0  0
    7.6368   19.4885   -1.5971 C   0  0  0  0  0  0  0  0  0  0  0  0
    8.6967   20.4634   -1.3104 C   0  0  0  0  0  0  0  0  0  0  0  0
    8.8112   21.4840   -2.0233 O   0  0  0  0  0  0  0  0  0  0  0  0
    9.4961   20.2537   -0.3607 O   0  0  0  0  0  0  0  0  0  0  0  0
    8.2122   21.6326   -2.7283 H   0  0  0  0  0  0  0  0  0  0  0  0
    0.0768   21.3658    3.1986 C   0  0  0  0  0  0  0  0  0  0  0  0
   -1.0410   20.8471    3.1237 O   0  0  0  0  0  0  0  0  0  0  0  0
    1.7633   25.9137    2.1290 C   0  0  0  0  0  0  0  0  0  0  0  0
    1.0079   25.0063    3.0655 C   0  0  0  0  0  0  0  0  0  0  0  0
    0.8810   23.6719    2.7485 C   0  0  0  0  0  0  0  0  0  0  0  0
    0.4417   25.4897    4.2293 C   0  0  0  0  0  0  0  0  0  0  0  0
   -0.2510   24.6284    5.0778 C   0  0  0  0  0  0  0  0  0  0  0  0
   -0.3781   23.2920    4.7468 C   0  0  0  0  0  0  0  0  0  0  0  0
    0.2014   22.8087    3.5948 C   0  0  0  0  0  0  0  0  0  0  0  0
 28 26  2  0  0  0
 26 27  1  0  0  0
 26 25  1  0  0  0
 25 22  1  0  0  0
 21 22  2  0  0  0
 21 20  1  0  0  0
 22 23  1  0  0  0
 20 19  2  0  0  0
 23 24  2  0  0  0
 19 24  1  0  0  0
 19  6  1  0  0  0
  5  4  2  0  0  0
  6  4  1  0  0  0
  6  7  1  0  0  0
  4  2  1  0  0  0
  7  1  1  0  0  0
  7  9  1  0  0  0
  2  1  2  0  0  0
  2  3  1  0  0  0
  1 30  1  0  0  0
 31 30  2  0  0  0
 18  9  2  0  0  0
 18 16  1  0  0  0
  9 10  1  0  0  0
 30 38  1  0  0  0
 17 16  1  0  0  0
 16 15  2  0  0  0
 34 38  2  0  0  0
 34 33  1  0  0  0
 38 37  1  0  0  0
 10 11  2  0  0  0
 32 33  1  0  0  0
 15 11  1  0  0  0
 15 14  1  0  0  0
 33 35  2  0  0  0
 11 12  1  0  0  0
 37 36  2  0  0  0
 35 36  1  0  0  0
 14 13  1  0  0  0
 12 13  1  0  0  0
  3  8  1  0  0  0
 27 29  1  0  0  0
M  END
> <minimizedAffinity>
-7.58602

$$$$
4IBG_1D6_A_401


 38 42  0  0  0  0  0  0  0  0999 V2000
    0.9735   19.8339    0.6154 C   0  0  0  0  0  0  0  0  0  0  0  0
    1.8488   19.3875   -0.3818 C   0  0  0  0  0  0  0  0  0  0  0  0
    1.5305   18.9154   -1.6894 O   0  0  0  0  0  0  0  0  0  0  0  0
    3.1196   19.4906    0.1481 C   0  0  0  0  0  0  0  0  0  0  0  0
    4.2845   19.1474   -0.5175 O   0  0  0  0  0  0  0  0  0  0  0  0
    3.0185   19.9731    1.3954 N   0  0  0  0  0  0  0  0  0  0  0  0
    1.7377   20.2292    1.7110 C   0  0  0  0  0  0  0  0  0  0  0  0
    2.2148   18.6426   -2.2685 H   0  0  0  0  0  0  0  0  0  0  0  0
    1.4303   21.6130    2.2064 C   0  0  0  0  0  0  0  0  0  0  0  0
    0.7005   21.6764    3.3976 C   0  0  0  0  0  0  0  0  0  0  0  0
    0.3814   22.9023    3.9332 C   0  0  0  0  0  0  0  0  0  0  0  0
   -0.3054   23.2979    5.0475 O   0  0  0  0  0  0  0  0  0  0  0  0
   -0.3078   24.6318    5.0925 C   0  0  0  0  0  0  0  0  0  0  0  0
    0.3413   25.1196    4.0433 O   0  0  0  0  0  0  0  0  0  0  0  0
    0.7965   24.0755    3.2832 C   0  0  0  0  0  0  0  0  0  0  0  0
    1.5281   24.0216    2.1097 C   0  0  0  0  0  0  0  0  0  0  0  0
    2.0154   25.4970    1.3641 Cl  0  0  0  0  0  0  0  0  0  0  0  0
    1.8514   22.7660    1.5575 C   0  0  0  0  0  0  0  0  0  0  0  0
    4.1551   20.1028    2.3235 C   0  0  0  0  0  0  0  0  0  0  0  0
    4.2811   19.2231    3.4089 C   0  0  0  0  0  0  0  0  0  0  0  0
    5.3667   19.3568    4.2801 C   0  0  0  0  0  0  0  0  0  0  0  0
    6.3138   20.3739    4.0499 C   0  0  0  0  0  0  0  0  0  0  0  0
    6.1999   21.2354    2.9763 C   0  0  0  0  0  0  0  0  0  0  0  0
    5.1015   21.1117    2.1060 C   0  0  0  0  0  0  0  0  0  0  0  0
    7.4948   20.5402    4.9549 C   0  0  0  0  0  0  0  0  0  0  0  0
    8.7657   20.1518    4.3304 C   0  0  0  0  0  0  0  0  0  0  0  0
    8.8842   19.0186    3.8160 O   0  0  0  0  0  0  0  0  0  0  0  0
    9.7343   20.9561    4.3359 O   0  0  0  0  0  0  0  0  0  0  0  0
    8.1584   18.4259    3.8160 H   0  0  0  0  0  0  0  0  0  0  0  0
   -0.5424   19.7903    0.6478 C   0  0  0  0  0  0  0  0  0  0  0  0
   -1.0574   19.1875    1.5942 O   0  0  0  0  0  0  0  0  0  0  0  0
   -5.1026   20.5183   -1.1816 C   0  0  0  0  0  0  0  0  0  0  0  0
   -3.6259   20.8119   -1.2460 C   0  0  0  0  0  0  0  0  0  0  0  0
   -2.7833   20.2133   -0.3356 C   0  0  0  0  0  0  0  0  0  0  0  0
   -3.1072   21.6693   -2.1971 C   0  0  0  0  0  0  0  0  0  0  0  0
   -1.7375   21.9227   -2.2345 C   0  0  0  0  0  0  0  0  0  0  0  0
   -0.9015   21.3217   -1.3118 C   0  0  0  0  0  0  0  0  0  0  0  0
   -1.4182   20.4543   -0.3751 C   0  0  0  0  0  0  0  0  0  0  0  0
 28 26  2  0  0  0
 26 27  1  0  0  0
 26 25  1  0  0  0
 25 22  1  0  0  0
 21 22  2  0  0  0
 21 20  1  0  0  0
 22 23  1  0  0  0
 20 19  2  0  0  0
 23 24  2  0  0  0
 19 24  1  0  0  0
 19  6  1  0  0  0
  5  4  2  0  0  0
  6  4  1  0  0  0
  6  7  1  0  0  0
  4  2  1  0  0  0
  7  1  1  0  0  0
  7  9  1  0  0  0
  2  1  2  0  0  0
  2  3  1  0  0  0
  1 30  1  0  0  0
 31 30  2  0  0  0
 18  9  2  0  0  0
 18 16  1  0  0  0
  9 10  1  0  0  0
 30 38  1  0  0  0
 17 16  1  0  0  0
 16 15  2  0  0  0
 34 38  2  0  0  0
 34 33  1  0  0  0
 38 37  1  0  0  0
 10 11  2  0  0  0
 32 33  1  0  0  0
 15 11  1  0  0  0
 15 14  1  0  0  0
 33 35  2  0  0  0
 11 12  1  0  0  0
 37 36  2  0  0  0
 35 36  1  0  0  0
 14 13  1  0  0  0
 12 13  1  0  0  0
  3  8  1  0  0  0
 27 29  1  0  0  0
M  END
> <minimizedAffinity>
-7.54988

$$$$
4IBG_1D6_A_401


 38 42  0  0  0  0  0  0  0  0999 V2000
    2.3949   20.4569    3.1944 C   0  0  0  0  0  0  0  0  0  0  0  0
    1.9478   20.8482    1.9268 C   0  0  0  0  0  0  0  0  0  0  0  0
    2.3125   20.3105    0.6571 O   0  0  0  0  0  0  0  0  0  0  0  0
    1.0594   21.8843    2.1356 C   0  0  0  0  0  0  0  0  0  0  0  0
    0.3847   22.5618    1.1338 O   0  0  0  0  0  0  0  0  0  0  0  0
    0.9735   22.1066    3.4554 N   0  0  0  0  0  0  0  0  0  0  0  0
    1.7401   21.2417    4.1410 C   0  0  0  0  0  0  0  0  0  0  0  0
    1.9387   20.6638   -0.1261 H   0  0  0  0  0  0  0  0  0  0  0  0
    1.0626   20.4562    5.2267 C   0  0  0  0  0  0  0  0  0  0  0  0
    1.4194   20.8056    6.5330 C   0  0  0  0  0  0  0  0  0  0  0  0
    0.8416   20.1469    7.5931 C   0  0  0  0  0  0  0  0  0  0  0  0
    0.9732   20.2417    8.9509 O   0  0  0  0  0  0  0  0  0  0  0  0
    0.1540   19.3543    9.5191 C   0  0  0  0  0  0  0  0  0  0  0  0
   -0.4969   18.6771    8.5822 O   0  0  0  0  0  0  0  0  0  0  0  0
   -0.1037   19.1367    7.3537 C   0  0  0  0  0  0  0  0  0  0  0  0
   -0.4702   18.7921    6.0645 C   0  0  0  0  0  0  0  0  0  0  0  0
   -1.6422   17.5494    5.8363 Cl  0  0  0  0  0  0  0  0  0  0  0  0
    0.1249   19.4630    4.9774 C   0  0  0  0  0  0  0  0  0  0  0  0
    0.2181   23.2194    4.0563 C   0  0  0  0  0  0  0  0  0  0  0  0
    0.6365   24.5432    3.8556 C   0  0  0  0  0  0  0  0  0  0  0  0
   -0.0921   25.5893    4.4301 C   0  0  0  0  0  0  0  0  0  0  0  0
   -1.2337   25.2926    5.2002 C   0  0  0  0  0  0  0  0  0  0  0  0
   -1.6559   23.9913    5.3913 C   0  0  0  0  0  0  0  0  0  0  0  0
   -0.9171   22.9362    4.8257 C   0  0  0  0  0  0  0  0  0  0  0  0
   -2.0447   26.3869    5.8213 C   0  0  0  0  0  0  0  0  0  0  0  0
   -2.4976   27.3957    4.8552 C   0  0  0  0  0  0  0  0  0  0  0  0
   -2.9981   27.0340    3.7682 O   0  0  0  0  0  0  0  0  0  0  0  0
   -2.3595   28.6187    5.1201 O   0  0  0  0  0  0  0  0  0  0  0  0
   -3.0974   26.1217    3.5787 H   0  0  0  0  0  0  0  0  0  0  0  0
    3.4948   19.4790    3.5616 C   0  0  0  0  0  0  0  0  0  0  0  0
    3.1666   18.2937    3.6691 O   0  0  0  0  0  0  0  0  0  0  0  0
    7.9984   18.3067    5.2982 C   0  0  0  0  0  0  0  0  0  0  0  0
    7.1055   19.2962    4.5948 C   0  0  0  0  0  0  0  0  0  0  0  0
    5.7791   18.9808    4.3992 C   0  0  0  0  0  0  0  0  0  0  0  0
    7.5945   20.5069    4.1435 C   0  0  0  0  0  0  0  0  0  0  0  0
    6.7466   21.4039    3.4967 C   0  0  0  0  0  0  0  0  0  0  0  0
    5.4183   21.0744    3.2995 C   0  0  0  0  0  0  0  0  0  0  0  0
    4.9289   19.8743    3.7651 C   0  0  0  0  0  0  0  0  0  0  0  0
 28 26  2  0  0  0
 26 27  1  0  0  0
 26 25  1  0  0  0
 25 22  1  0  0  0
 21 22  2  0  0  0
 21 20  1  0  0  0
 22 23  1  0  0  0
 20 19  2  0  0  0
 23 24  2  0  0  0
 19 24  1  0  0  0
 19  6  1  0  0  0
  5  4  2  0  0  0
  6  4  1  0  0  0
  6  7  1  0  0  0
  4  2  1  0  0  0
  7  1  1  0  0  0
  7  9  1  0  0  0
  2  1  2  0  0  0
  2  3  1  0  0  0
  1 30  1  0  0  0
 31 30  2  0  0  0
 18  9  2  0  0  0
 18 16  1  0  0  0
  9 10  1  0  0  0
 30 38  1  0  0  0
 17 16  1  0  0  0
 16 15  2  0  0  0
 34 38  2  0  0  0
 34 33  1  0  0  0
 38 37  1  0  0  0
 10 11  2  0  0  0
 32 33  1  0  0  0
 15 11  1  0  0  0
 15 14  1  0  0  0
 33 35  2  0  0  0
 11 12  1  0  0  0
 37 36  2  0  0  0
 35 36  1  0  0  0
 14 13  1  0  0  0
 12 13  1  0  0  0
  3  8  1  0  0  0
 27 29  1  0  0  0
M  END
> <minimizedAffinity>
-7.54507

$$$$
4IBG_1D6_A_401


 38 42  0  0  0  0  0  0  0  0999 V2000
    2.6303   19.6256    0.4725 C   0  0  0  0  0  0  0  0  0  0  0  0
    3.8316   20.3444    0.4659 C   0  0  0  0  0  0  0  0  0  0  0  0
    5.0758   19.9793   -0.1279 O   0  0  0  0  0  0  0  0  0  0  0  0
    3.5851   21.5109    1.1623 C   0  0  0  0  0  0  0  0  0  0  0  0
    4.5184   22.5085    1.3899 O   0  0  0  0  0  0  0  0  0  0  0  0
    2.3065   21.4986    1.5665 N   0  0  0  0  0  0  0  0  0  0  0  0
    1.6771   20.3898    1.1418 C   0  0  0  0  0  0  0  0  0  0  0  0
    5.8131   20.5537   -0.0615 H   0  0  0  0  0  0  0  0  0  0  0  0
    0.4027   20.5917    0.3737 C   0  0  0  0  0  0  0  0  0  0  0  0
   -0.7434   20.0413    0.9561 C   0  0  0  0  0  0  0  0  0  0  0  0
   -1.9590   20.1856    0.3291 C   0  0  0  0  0  0  0  0  0  0  0  0
   -3.2296   19.7745    0.6229 O   0  0  0  0  0  0  0  0  0  0  0  0
   -4.0473   20.2035   -0.3407 C   0  0  0  0  0  0  0  0  0  0  0  0
   -3.3551   20.8681   -1.2568 O   0  0  0  0  0  0  0  0  0  0  0  0
   -2.0377   20.8883   -0.8839 C   0  0  0  0  0  0  0  0  0  0  0  0
   -0.9102   21.4451   -1.4617 C   0  0  0  0  0  0  0  0  0  0  0  0
   -1.0735   22.3030   -2.9473 Cl  0  0  0  0  0  0  0  0  0  0  0  0
    0.3366   21.2936   -0.8225 C   0  0  0  0  0  0  0  0  0  0  0  0
    1.7103   22.5188    2.4462 C   0  0  0  0  0  0  0  0  0  0  0  0
    1.2031   22.1551    3.7025 C   0  0  0  0  0  0  0  0  0  0  0  0
    0.6425   23.1349    4.5277 C   0  0  0  0  0  0  0  0  0  0  0  0
    0.5983   24.4700    4.0804 C   0  0  0  0  0  0  0  0  0  0  0  0
    1.1064   24.8347    2.8488 C   0  0  0  0  0  0  0  0  0  0  0  0
    1.6587   23.8487    2.0110 C   0  0  0  0  0  0  0  0  0  0  0  0
    0.0157   25.5476    4.9409 C   0  0  0  0  0  0  0  0  0  0  0  0
   -1.4311   25.7198    4.7582 C   0  0  0  0  0  0  0  0  0  0  0  0
   -1.8580   26.5827    3.9607 O   0  0  0  0  0  0  0  0  0  0  0  0
   -2.2319   25.0105    5.4221 O   0  0  0  0  0  0  0  0  0  0  0  0
   -1.2553   27.1064    3.4704 H   0  0  0  0  0  0  0  0  0  0  0  0
    2.3596   18.2097    0.0004 C   0  0  0  0  0  0  0  0  0  0  0  0
    2.6489   17.3013    0.7848 O   0  0  0  0  0  0  0  0  0  0  0  0
    1.4887   19.5358   -4.7065 C   0  0  0  0  0  0  0  0  0  0  0  0
    1.3397   18.5175   -3.6055 C   0  0  0  0  0  0  0  0  0  0  0  0
    1.8753   18.7879   -2.3658 C   0  0  0  0  0  0  0  0  0  0  0  0
    0.6802   17.3226   -3.8200 C   0  0  0  0  0  0  0  0  0  0  0  0
    0.5563   16.3990   -2.7840 C   0  0  0  0  0  0  0  0  0  0  0  0
    1.1035   16.6776   -1.5452 C   0  0  0  0  0  0  0  0  0  0  0  0
    1.7458   17.8764   -1.3287 C   0  0  0  0  0  0  0  0  0  0  0  0
 28 26  2  0  0  0
 26 27  1  0  0  0
 26 25  1  0  0  0
 25 22  1  0  0  0
 21 22  2  0  0  0
 21 20  1  0  0  0
 22 23  1  0  0  0
 20 19  2  0  0  0
 23 24  2  0  0  0
 19 24  1  0  0  0
 19  6  1  0  0  0
  5  4  2  0  0  0
  6  4  1  0  0  0
  6  7  1  0  0  0
  4  2  1  0  0  0
  7  1  1  0  0  0
  7  9  1  0  0  0
  2  1  2  0  0  0
  2  3  1  0  0  0
  1 30  1  0  0  0
 31 30  2  0  0  0
 18  9  2  0  0  0
 18 16  1  0  0  0
  9 10  1  0  0  0
 30 38  1  0  0  0
 17 16  1  0  0  0
 16 15  2  0  0  0
 34 38  2  0  0  0
 34 33  1  0  0  0
 38 37  1  0  0  0
 10 11  2  0  0  0
 32 33  1  0  0  0
 15 11  1  0  0  0
 15 14  1  0  0  0
 33 35  2  0  0  0
 11 12  1  0  0  0
 37 36  2  0  0  0
 35 36  1  0  0  0
 14 13  1  0  0  0
 12 13  1  0  0  0
  3  8  1  0  0  0
 27 29  1  0  0  0
M  END
> <minimizedAffinity>
-7.53801

$$$$
4IBG_1D6_A_401


 38 42  0  0  0  0  0  0  0  0999 V2000
    3.5659   20.6437    0.9312 C   0  0  0  0  0  0  0  0  0  0  0  0
    3.4986   19.3649    0.3654 C   0  0  0  0  0  0  0  0  0  0  0  0
    4.4997   18.3492    0.3573 O   0  0  0  0  0  0  0  0  0  0  0  0
    2.2445   19.2618   -0.2028 C   0  0  0  0  0  0  0  0  0  0  0  0
    1.7684   18.1463   -0.8715 O   0  0  0  0  0  0  0  0  0  0  0  0
    1.5899   20.4131    0.0082 N   0  0  0  0  0  0  0  0  0  0  0  0
    2.3392   21.2699    0.7224 C   0  0  0  0  0  0  0  0  0  0  0  0
    4.3299   17.5273   -0.0593 H   0  0  0  0  0  0  0  0  0  0  0  0
    1.7168   21.8312    1.9684 C   0  0  0  0  0  0  0  0  0  0  0  0
    1.4924   23.2115    1.9586 C   0  0  0  0  0  0  0  0  0  0  0  0
    0.9161   23.8128    3.0530 C   0  0  0  0  0  0  0  0  0  0  0  0
    0.5774   25.1028    3.3546 O   0  0  0  0  0  0  0  0  0  0  0  0
    0.0296   25.1237    4.5715 C   0  0  0  0  0  0  0  0  0  0  0  0
    0.0099   23.8978    5.0783 O   0  0  0  0  0  0  0  0  0  0  0  0
    0.5535   23.0351    4.1644 C   0  0  0  0  0  0  0  0  0  0  0  0
    0.7622   21.6671    4.1780 C   0  0  0  0  0  0  0  0  0  0  0  0
    0.2878   20.7665    5.5686 Cl  0  0  0  0  0  0  0  0  0  0  0  0
    1.3572   21.0508    3.0591 C   0  0  0  0  0  0  0  0  0  0  0  0
    0.2673   20.7254   -0.5604 C   0  0  0  0  0  0  0  0  0  0  0  0
    0.1560   21.6268   -1.6294 C   0  0  0  0  0  0  0  0  0  0  0  0
   -1.1058   21.9115   -2.1605 C   0  0  0  0  0  0  0  0  0  0  0  0
   -2.2420   21.2862   -1.6107 C   0  0  0  0  0  0  0  0  0  0  0  0
   -2.1363   20.3895   -0.5653 C   0  0  0  0  0  0  0  0  0  0  0  0
   -0.8695   20.1115   -0.0203 C   0  0  0  0  0  0  0  0  0  0  0  0
   -3.6077   21.5580   -2.1605 C   0  0  0  0  0  0  0  0  0  0  0  0
   -4.6842   20.9385   -1.3772 C   0  0  0  0  0  0  0  0  0  0  0  0
   -5.1401   19.8259   -1.7196 O   0  0  0  0  0  0  0  0  0  0  0  0
   -5.1548   21.5423   -0.3778 O   0  0  0  0  0  0  0  0  0  0  0  0
   -4.7843   19.3830   -2.4647 H   0  0  0  0  0  0  0  0  0  0  0  0
    4.7562   21.3584    1.5423 C   0  0  0  0  0  0  0  0  0  0  0  0
    5.0661   22.4431    1.0407 O   0  0  0  0  0  0  0  0  0  0  0  0
    4.8256   18.6058    5.6763 C   0  0  0  0  0  0  0  0  0  0  0  0
    5.5626   19.4911    4.7047 C   0  0  0  0  0  0  0  0  0  0  0  0
    4.8857   20.0066    3.6216 C   0  0  0  0  0  0  0  0  0  0  0  0
    6.8998   19.7901    4.8810 C   0  0  0  0  0  0  0  0  0  0  0  0
    7.5569   20.6121    3.9676 C   0  0  0  0  0  0  0  0  0  0  0  0
    6.8696   21.1188    2.8802 C   0  0  0  0  0  0  0  0  0  0  0  0
    5.5325   20.8333    2.7153 C   0  0  0  0  0  0  0  0  0  0  0  0
 28 26  2  0  0  0
 26 27  1  0  0  0
 26 25  1  0  0  0
 25 22  1  0  0  0
 21 22  2  0  0  0
 21 20  1  0  0  0
 22 23  1  0  0  0
 20 19  2  0  0  0
 23 24  2  0  0  0
 19 24  1  0  0  0
 19  6  1  0  0  0
  5  4  2  0  0  0
  6  4  1  0  0  0
  6  7  1  0  0  0
  4  2  1  0  0  0
  7  1  1  0  0  0
  7  9  1  0  0  0
  2  1  2  0  0  0
  2  3  1  0  0  0
  1 30  1  0  0  0
 31 30  2  0  0  0
 18  9  2  0  0  0
 18 16  1  0  0  0
  9 10  1  0  0  0
 30 38  1  0  0  0
 17 16  1  0  0  0
 16 15  2  0  0  0
 34 38  2  0  0  0
 34 33  1  0  0  0
 38 37  1  0  0  0
 10 11  2  0  0  0
 32 33  1  0  0  0
 15 11  1  0  0  0
 15 14  1  0  0  0
 33 35  2  0  0  0
 11 12  1  0  0  0
 37 36  2  0  0  0
 35 36  1  0  0  0
 14 13  1  0  0  0
 12 13  1  0  0  0
  3  8  1  0  0  0
 27 29  1  0  0  0
M  END
> <minimizedAffinity>
-7.53160

$$$$
4IBG_1D6_A_401


 38 42  0  0  0  0  0  0  0  0999 V2000
    1.1742   20.7014    1.2913 C   0  0  0  0  0  0  0  0  0  0  0  0
    1.5626   20.0423    0.1188 C   0  0  0  0  0  0  0  0  0  0  0  0
    2.8695   19.9348   -0.4420 O   0  0  0  0  0  0  0  0  0  0  0  0
    0.4119   19.4966   -0.4144 C   0  0  0  0  0  0  0  0  0  0  0  0
    0.3555   18.7572   -1.5841 O   0  0  0  0  0  0  0  0  0  0  0  0
   -0.6146   19.8074    0.3907 N   0  0  0  0  0  0  0  0  0  0  0  0
   -0.1955   20.5088    1.4575 C   0  0  0  0  0  0  0  0  0  0  0  0
    2.9994   19.4612   -1.2400 H   0  0  0  0  0  0  0  0  0  0  0  0
   -0.5808   19.9755    2.8073 C   0  0  0  0  0  0  0  0  0  0  0  0
   -1.4368   20.7915    3.5537 C   0  0  0  0  0  0  0  0  0  0  0  0
   -1.8521   20.3798    4.7985 C   0  0  0  0  0  0  0  0  0  0  0  0
   -2.6589   20.9291    5.7562 O   0  0  0  0  0  0  0  0  0  0  0  0
   -2.7303   20.0834    6.7863 C   0  0  0  0  0  0  0  0  0  0  0  0
   -1.9909   19.0098    6.5403 O   0  0  0  0  0  0  0  0  0  0  0  0
   -1.4183   19.1437    5.3037 C   0  0  0  0  0  0  0  0  0  0  0  0
   -0.5797   18.3253    4.5673 C   0  0  0  0  0  0  0  0  0  0  0  0
   -0.0890   16.8160    5.2389 Cl  0  0  0  0  0  0  0  0  0  0  0  0
   -0.1498   18.7485    3.2937 C   0  0  0  0  0  0  0  0  0  0  0  0
   -2.0234   19.5053    0.0840 C   0  0  0  0  0  0  0  0  0  0  0  0
   -2.8192   20.4542   -0.5748 C   0  0  0  0  0  0  0  0  0  0  0  0
   -4.1541   20.1523   -0.8616 C   0  0  0  0  0  0  0  0  0  0  0  0
   -4.6740   18.8991   -0.4828 C   0  0  0  0  0  0  0  0  0  0  0  0
   -3.8912   17.9573    0.1562 C   0  0  0  0  0  0  0  0  0  0  0  0
   -2.5517   18.2635    0.4580 C   0  0  0  0  0  0  0  0  0  0  0  0
   -6.0951   18.5365   -0.7830 C   0  0  0  0  0  0  0  0  0  0  0  0
   -7.0474   19.0403    0.2147 C   0  0  0  0  0  0  0  0  0  0  0  0
   -7.3525   18.3291    1.1966 O   0  0  0  0  0  0  0  0  0  0  0  0
   -7.5658   20.1774    0.0630 O   0  0  0  0  0  0  0  0  0  0  0  0
   -6.9621   17.4839    1.3022 H   0  0  0  0  0  0  0  0  0  0  0  0
    1.9887   21.6079    2.1944 C   0  0  0  0  0  0  0  0  0  0  0  0
    2.8940   21.0734    2.8417 O   0  0  0  0  0  0  0  0  0  0  0  0
   -0.1402   25.3896    4.6107 C   0  0  0  0  0  0  0  0  0  0  0  0
    0.7461   24.9120    3.4893 C   0  0  0  0  0  0  0  0  0  0  0  0
    0.9656   23.5607    3.3378 C   0  0  0  0  0  0  0  0  0  0  0  0
    1.3406   25.8035    2.6173 C   0  0  0  0  0  0  0  0  0  0  0  0
    2.1551   25.3346    1.5885 C   0  0  0  0  0  0  0  0  0  0  0  0
    2.3741   23.9766    1.4495 C   0  0  0  0  0  0  0  0  0  0  0  0
    1.7672   23.0884    2.3094 C   0  0  0  0  0  0  0  0  0  0  0  0
 28 26  2  0  0  0
 26 27  1  0  0  0
 26 25  1  0  0  0
 25 22  1  0  0  0
 21 22  2  0  0  0
 21 20  1  0  0  0
 22 23  1  0  0  0
 20 19  2  0  0  0
 23 24  2  0  0  0
 19 24  1  0  0  0
 19  6  1  0  0  0
  5  4  2  0  0  0
  6  4  1  0  0  0
  6  7  1  0  0  0
  4  2  1  0  0  0
  7  1  1  0  0  0
  7  9  1  0  0  0
  2  1  2  0  0  0
  2  3  1  0  0  0
  1 30  1  0  0  0
 31 30  2  0  0  0
 18  9  2  0  0  0
 18 16  1  0  0  0
  9 10  1  0  0  0
 30 38  1  0  0  0
 17 16  1  0  0  0
 16 15  2  0  0  0
 34 38  2  0  0  0
 34 33  1  0  0  0
 38 37  1  0  0  0
 10 11  2  0  0  0
 32 33  1  0  0  0
 15 11  1  0  0  0
 15 14  1  0  0  0
 33 35  2  0  0  0
 11 12  1  0  0  0
 37 36  2  0  0  0
 35 36  1  0  0  0
 14 13  1  0  0  0
 12 13  1  0  0  0
  3  8  1  0  0  0
 27 29  1  0  0  0
M  END
> <minimizedAffinity>
-7.36559

$$$$
4IBG_1D6_A_401


 38 42  0  0  0  0  0  0  0  0999 V2000
    2.7174   19.7481    0.4745 C   0  0  0  0  0  0  0  0  0  0  0  0
    3.9337   20.4386    0.5362 C   0  0  0  0  0  0  0  0  0  0  0  0
    5.1950   20.0557   -0.0082 O   0  0  0  0  0  0  0  0  0  0  0  0
    3.6822   21.5971    1.2440 C   0  0  0  0  0  0  0  0  0  0  0  0
    4.6264   22.5681    1.5332 O   0  0  0  0  0  0  0  0  0  0  0  0
    2.3865   21.6071    1.5900 N   0  0  0  0  0  0  0  0  0  0  0  0
    1.7523   20.5217    1.1154 C   0  0  0  0  0  0  0  0  0  0  0  0
    5.9413   20.6113    0.1027 H   0  0  0  0  0  0  0  0  0  0  0  0
    0.5189   20.7678    0.2949 C   0  0  0  0  0  0  0  0  0  0  0  0
    0.7126   21.5137   -0.8720 C   0  0  0  0  0  0  0  0  0  0  0  0
   -0.3586   21.7801   -1.6924 C   0  0  0  0  0  0  0  0  0  0  0  0
   -0.5032   22.4651   -2.8670 O   0  0  0  0  0  0  0  0  0  0  0  0
   -1.7831   22.4015   -3.2399 C   0  0  0  0  0  0  0  0  0  0  0  0
   -2.4794   21.7111   -2.3463 O   0  0  0  0  0  0  0  0  0  0  0  0
   -1.6323   21.2957   -1.3539 C   0  0  0  0  0  0  0  0  0  0  0  0
   -1.8307   20.5479   -0.2065 C   0  0  0  0  0  0  0  0  0  0  0  0
   -3.4164   19.9748    0.1498 Cl  0  0  0  0  0  0  0  0  0  0  0  0
   -0.7346   20.2786    0.6373 C   0  0  0  0  0  0  0  0  0  0  0  0
    1.7742   22.6241    2.4622 C   0  0  0  0  0  0  0  0  0  0  0  0
    1.6600   23.9514    2.0228 C   0  0  0  0  0  0  0  0  0  0  0  0
    1.0741   24.9053    2.8608 C   0  0  0  0  0  0  0  0  0  0  0  0
    0.6092   24.5136    4.1316 C   0  0  0  0  0  0  0  0  0  0  0  0
    0.7094   23.2057    4.5642 C   0  0  0  0  0  0  0  0  0  0  0  0
    1.3107   22.2468    3.7286 C   0  0  0  0  0  0  0  0  0  0  0  0
   -0.0335   25.5047    5.0513 C   0  0  0  0  0  0  0  0  0  0  0  0
   -1.4813   25.6367    4.8446 C   0  0  0  0  0  0  0  0  0  0  0  0
   -2.2684   24.8962    5.4730 O   0  0  0  0  0  0  0  0  0  0  0  0
   -1.9186   26.4813    4.0197 O   0  0  0  0  0  0  0  0  0  0  0  0
   -1.9348   24.2702    6.0852 H   0  0  0  0  0  0  0  0  0  0  0  0
    2.4366   18.3481   -0.0375 C   0  0  0  0  0  0  0  0  0  0  0  0
    3.0411   18.0012   -1.0565 O   0  0  0  0  0  0  0  0  0  0  0  0
   -1.7599   15.6965   -0.2115 C   0  0  0  0  0  0  0  0  0  0  0  0
   -0.5174   16.0952    0.5424 C   0  0  0  0  0  0  0  0  0  0  0  0
    0.3584   16.9884   -0.0340 C   0  0  0  0  0  0  0  0  0  0  0  0
   -0.2434   15.5797    1.7945 C   0  0  0  0  0  0  0  0  0  0  0  0
    0.9126   15.9661    2.4699 C   0  0  0  0  0  0  0  0  0  0  0  0
    1.7884   16.8582    1.8793 C   0  0  0  0  0  0  0  0  0  0  0  0
    1.5050   17.3839    0.6383 C   0  0  0  0  0  0  0  0  0  0  0  0
 28 26  2  0  0  0
 26 27  1  0  0  0
 26 25  1  0  0  0
 25 22  1  0  0  0
 21 22  2  0  0  0
 21 20  1  0  0  0
 22 23  1  0  0  0
 20 19  2  0  0  0
 23 24  2  0  0  0
 19 24  1  0  0  0
 19  6  1  0  0  0
  5  4  2  0  0  0
  6  4  1  0  0  0
  6  7  1  0  0  0
  4  2  1  0  0  0
  7  1  1  0  0  0
  7  9  1  0  0  0
  2  1  2  0  0  0
  2  3  1  0  0  0
  1 30  1  0  0  0
 31 30  2  0  0  0
 18  9  2  0  0  0
 18 16  1  0  0  0
  9 10  1  0  0  0
 30 38  1  0  0  0
 17 16  1  0  0  0
 16 15  2  0  0  0
 34 38  2  0  0  0
 34 33  1  0  0  0
 38 37  1  0  0  0
 10 11  2  0  0  0
 32 33  1  0  0  0
 15 11  1  0  0  0
 15 14  1  0  0  0
 33 35  2  0  0  0
 11 12  1  0  0  0
 37 36  2  0  0  0
 35 36  1  0  0  0
 14 13  1  0  0  0
 12 13  1  0  0  0
  3  8  1  0  0  0
 27 29  1  0  0  0
M  END
> <minimizedAffinity>
-7.31419

$$$$
