188L_OXE_A_400


  8  8  0  0  0  0  0  0  0  0999 V2000
   27.1890    7.2874    4.8623 C   0  0  0  0  0  0  0  0  0  0  0  0
   27.1340    6.5409    3.7099 C   0  0  0  0  0  0  0  0  0  0  0  0
   26.4549    5.3257    3.7078 C   0  0  0  0  0  0  0  0  0  0  0  0
   25.7005    4.9331    4.8197 C   0  0  0  0  0  0  0  0  0  0  0  0
   25.7096    5.6993    5.9905 C   0  0  0  0  0  0  0  0  0  0  0  0
   26.4815    6.8547    6.0429 C   0  0  0  0  0  0  0  0  0  0  0  0
   27.9894    8.5652    4.8234 C   0  0  0  0  0  0  0  0  0  0  0  0
   27.9441    6.9775    2.5088 C   0  0  0  0  0  0  0  0  0  0  0  0
  1  2  2  0  0  0
  1  6  1  0  0  0
  1  7  1  0  0  0
  2  3  1  0  0  0
  2  8  1  0  0  0
  3  4  2  0  0  0
  4  5  1  0  0  0
  5  6  2  0  0  0
M  END
> <minimizedAffinity>
-6.61497

$$$$
188L_OXE_A_400


  8  8  0  0  0  0  0  0  0  0999 V2000
   27.1665    6.5976    3.7520 C   0  0  0  0  0  0  0  0  0  0  0  0
   27.2770    7.3763    4.8787 C   0  0  0  0  0  0  0  0  0  0  0  0
   26.5453    7.0489    6.0170 C   0  0  0  0  0  0  0  0  0  0  0  0
   25.8213    5.8523    6.0747 C   0  0  0  0  0  0  0  0  0  0  0  0
   25.7285    5.0235    4.9510 C   0  0  0  0  0  0  0  0  0  0  0  0
   26.3586    5.4024    3.7708 C   0  0  0  0  0  0  0  0  0  0  0  0
   27.9346    7.0339    2.5294 C   0  0  0  0  0  0  0  0  0  0  0  0
   28.0701    8.6632    4.8114 C   0  0  0  0  0  0  0  0  0  0  0  0
  1  2  2  0  0  0
  1  6  1  0  0  0
  1  7  1  0  0  0
  2  3  1  0  0  0
  2  8  1  0  0  0
  3  4  2  0  0  0
  4  5  1  0  0  0
  5  6  2  0  0  0
M  END
> <minimizedAffinity>
-6.60654

$$$$
188L_OXE_A_400


  8  8  0  0  0  0  0  0  0  0999 V2000
   26.3070    5.5950    4.6105 C   0  0  0  0  0  0  0  0  0  0  0  0
   26.9128    6.8099    4.3979 C   0  0  0  0  0  0  0  0  0  0  0  0
   27.7231    6.9896    3.2803 C   0  0  0  0  0  0  0  0  0  0  0  0
   27.8018    5.9987    2.2948 C   0  0  0  0  0  0  0  0  0  0  0  0
   27.1595    4.7682    2.4720 C   0  0  0  0  0  0  0  0  0  0  0  0
   26.4446    4.5348    3.6416 C   0  0  0  0  0  0  0  0  0  0  0  0
   25.4900    5.4380    5.8686 C   0  0  0  0  0  0  0  0  0  0  0  0
   26.8144    7.8798    5.4634 C   0  0  0  0  0  0  0  0  0  0  0  0
  1  2  2  0  0  0
  1  6  1  0  0  0
  1  7  1  0  0  0
  2  3  1  0  0  0
  2  8  1  0  0  0
  3  4  2  0  0  0
  4  5  1  0  0  0
  5  6  2  0  0  0
M  END
> <minimizedAffinity>
-6.32065

$$$$
188L_OXE_A_400


  8  8  0  0  0  0  0  0  0  0999 V2000
   26.9441    6.8245    4.4099 C   0  0  0  0  0  0  0  0  0  0  0  0
   26.3189    5.6273    4.6626 C   0  0  0  0  0  0  0  0  0  0  0  0
   26.3473    4.6191    3.7030 C   0  0  0  0  0  0  0  0  0  0  0  0
   27.1336    4.7565    2.5532 C   0  0  0  0  0  0  0  0  0  0  0  0
   27.8117    5.9531    2.2954 C   0  0  0  0  0  0  0  0  0  0  0  0
   27.6930    7.0103    3.1908 C   0  0  0  0  0  0  0  0  0  0  0  0
   26.8294    7.9019    5.4592 C   0  0  0  0  0  0  0  0  0  0  0  0
   25.4791    5.4830    5.9130 C   0  0  0  0  0  0  0  0  0  0  0  0
  1  2  2  0  0  0
  1  6  1  0  0  0
  1  7  1  0  0  0
  2  3  1  0  0  0
  2  8  1  0  0  0
  3  4  2  0  0  0
  4  5  1  0  0  0
  5  6  2  0  0  0
M  END
> <minimizedAffinity>
-6.29169

$$$$
188L_OXE_A_400


  8  8  0  0  0  0  0  0  0  0999 V2000
   27.3822    6.1349    3.2017 C   0  0  0  0  0  0  0  0  0  0  0  0
   26.5142    6.1249    4.2668 C   0  0  0  0  0  0  0  0  0  0  0  0
   26.6095    7.1131    5.2428 C   0  0  0  0  0  0  0  0  0  0  0  0
   27.4753    8.1993    5.0698 C   0  0  0  0  0  0  0  0  0  0  0  0
   28.3400    8.2502    3.9708 C   0  0  0  0  0  0  0  0  0  0  0  0
   28.3363    7.2067    3.0518 C   0  0  0  0  0  0  0  0  0  0  0  0
   27.2729    5.0062    2.2073 C   0  0  0  0  0  0  0  0  0  0  0  0
   25.5739    4.9522    4.4413 C   0  0  0  0  0  0  0  0  0  0  0  0
  1  2  2  0  0  0
  1  6  1  0  0  0
  1  7  1  0  0  0
  2  3  1  0  0  0
  2  8  1  0  0  0
  3  4  2  0  0  0
  4  5  1  0  0  0
  5  6  2  0  0  0
M  END
> <minimizedAffinity>
-6.27137

$$$$
188L_OXE_A_400


  8  8  0  0  0  0  0  0  0  0999 V2000
   26.5486    6.1309    4.2498 C   0  0  0  0  0  0  0  0  0  0  0  0
   27.4099    6.0887    3.1800 C   0  0  0  0  0  0  0  0  0  0  0  0
   28.2824    7.1502    2.9555 C   0  0  0  0  0  0  0  0  0  0  0  0
   28.3977    8.1835    3.8926 C   0  0  0  0  0  0  0  0  0  0  0  0
   27.5579    8.2250    5.0110 C   0  0  0  0  0  0  0  0  0  0  0  0
   26.6004    7.2312    5.1816 C   0  0  0  0  0  0  0  0  0  0  0  0
   25.5842    4.9824    4.4094 C   0  0  0  0  0  0  0  0  0  0  0  0
   27.2859    4.9627    2.1768 C   0  0  0  0  0  0  0  0  0  0  0  0
  1  2  2  0  0  0
  1  6  1  0  0  0
  1  7  1  0  0  0
  2  3  1  0  0  0
  2  8  1  0  0  0
  3  4  2  0  0  0
  4  5  1  0  0  0
  5  6  2  0  0  0
M  END
> <minimizedAffinity>
-6.24379

$$$$
188L_OXE_A_400


  8  8  0  0  0  0  0  0  0  0999 V2000
   27.4324    6.9477    3.7951 C   0  0  0  0  0  0  0  0  0  0  0  0
   26.6598    6.4853    4.8331 C   0  0  0  0  0  0  0  0  0  0  0  0
   26.0322    5.2472    4.7267 C   0  0  0  0  0  0  0  0  0  0  0  0
   26.3046    4.4051    3.6423 C   0  0  0  0  0  0  0  0  0  0  0  0
   27.1214    4.8403    2.5927 C   0  0  0  0  0  0  0  0  0  0  0  0
   27.6575    6.1227    2.6331 C   0  0  0  0  0  0  0  0  0  0  0  0
   28.0384    8.3212    3.9398 C   0  0  0  0  0  0  0  0  0  0  0  0
   26.3785    7.3979    6.0069 C   0  0  0  0  0  0  0  0  0  0  0  0
  1  2  2  0  0  0
  1  6  1  0  0  0
  1  7  1  0  0  0
  2  3  1  0  0  0
  2  8  1  0  0  0
  3  4  2  0  0  0
  4  5  1  0  0  0
  5  6  2  0  0  0
M  END
> <minimizedAffinity>
-6.07610

$$$$
188L_OXE_A_400


  8  8  0  0  0  0  0  0  0  0999 V2000
   27.8626    7.1393    2.3656 C   0  0  0  0  0  0  0  0  0  0  0  0
   27.4272    7.8965    3.4263 C   0  0  0  0  0  0  0  0  0  0  0  0
   27.3357    9.2794    3.2942 C   0  0  0  0  0  0  0  0  0  0  0  0
   27.5341    9.8874    2.0491 C   0  0  0  0  0  0  0  0  0  0  0  0
   27.9389    9.1292    0.9449 C   0  0  0  0  0  0  0  0  0  0  0  0
   28.1489    7.7630    1.0965 C   0  0  0  0  0  0  0  0  0  0  0  0
   28.0003    5.6534    2.5844 C   0  0  0  0  0  0  0  0  0  0  0  0
   27.2049    7.2301    4.7665 C   0  0  0  0  0  0  0  0  0  0  0  0
  1  2  2  0  0  0
  1  6  1  0  0  0
  1  7  1  0  0  0
  2  3  1  0  0  0
  2  8  1  0  0  0
  3  4  2  0  0  0
  4  5  1  0  0  0
  5  6  2  0  0  0
M  END
> <minimizedAffinity>
-5.40505

$$$$
