4ZZD_RBF_A_201


 32 34  0  0  0  0  0  0  0  0999 V2000
    6.6812    1.3851   93.4013 N   0  0  0  0  0  0  0  0  0  0  0  0
    6.5459    0.1302   93.9039 C   0  0  0  0  0  0  0  0  0  0  0  0
    7.3822   -0.2796   94.7404 O   0  0  0  0  0  0  0  0  0  0  0  0
    5.5453   -0.6912   93.5382 N   0  0  0  0  0  0  0  0  0  0  0  0
    4.6083   -0.3302   92.6483 C   0  0  0  0  0  0  0  0  0  0  0  0
    3.6890   -1.1162   92.3276 O   0  0  0  0  0  0  0  0  0  0  0  0
    4.6835    1.0286   92.0491 C   0  0  0  0  0  0  0  0  0  0  0  0
    3.7778    1.4697   91.1442 N   0  0  0  0  0  0  0  0  0  0  0  0
    3.8721    2.7124   90.6163 C   0  0  0  0  0  0  0  0  0  0  0  0
    2.9261    3.1398   89.6894 C   0  0  0  0  0  0  0  0  0  0  0  0
    3.0111    4.4163   89.1392 C   0  0  0  0  0  0  0  0  0  0  0  0
    1.9822    4.8732   88.1354 C   0  0  0  0  0  0  0  0  0  0  0  0
    4.1187    5.3274   89.5429 C   0  0  0  0  0  0  0  0  0  0  0  0
    4.2155    6.7088   88.9479 C   0  0  0  0  0  0  0  0  0  0  0  0
    5.0666    4.9032   90.4705 C   0  0  0  0  0  0  0  0  0  0  0  0
    4.9815    3.6268   91.0227 C   0  0  0  0  0  0  0  0  0  0  0  0
    5.9336    3.1892   91.9692 N   0  0  0  0  0  0  0  0  0  0  0  0
    5.8116    1.8843   92.4920 C   0  0  0  0  0  0  0  0  0  0  0  0
    5.4989   -1.5897   93.9379 H   0  0  0  0  0  0  0  0  0  0  0  0
    7.0484    4.0466   92.3862 C   0  0  0  0  0  0  0  0  0  0  0  0
    8.3284    3.6555   91.6576 C   0  0  0  0  0  0  0  0  0  0  0  0
    9.0373    2.6764   92.4258 O   0  0  0  0  0  0  0  0  0  0  0  0
    9.2702    3.0501   93.2900 H   0  0  0  0  0  0  0  0  0  0  0  0
    9.2146    4.8784   91.4395 C   0  0  0  0  0  0  0  0  0  0  0  0
    8.3939    5.9829   91.0451 O   0  0  0  0  0  0  0  0  0  0  0  0
    7.9444    5.7705   90.2122 H   0  0  0  0  0  0  0  0  0  0  0  0
   10.2765    4.6288   90.3691 C   0  0  0  0  0  0  0  0  0  0  0  0
   10.7388    3.2718   90.4256 O   0  0  0  0  0  0  0  0  0  0  0  0
   11.1528    3.1069   91.2872 H   0  0  0  0  0  0  0  0  0  0  0  0
   11.4567    5.5865   90.5166 C   0  0  0  0  0  0  0  0  0  0  0  0
   11.0982    6.8827   90.0186 O   0  0  0  0  0  0  0  0  0  0  0  0
   10.8600    6.8142   89.0808 H   0  0  0  0  0  0  0  0  0  0  0  0
  1  2  1  0  0  0
  1 18  2  0  0  0
  2  3  2  0  0  0
  2  4  1  0  0  0
  4  5  1  0  0  0
  5  6  2  0  0  0
  5  7  1  0  0  0
  7  8  2  0  0  0
  7 18  1  0  0  0
  8  9  1  0  0  0
  9 10  2  0  0  0
  9 16  1  0  0  0
 10 11  1  0  0  0
 11 12  1  0  0  0
 11 13  2  0  0  0
 13 14  1  0  0  0
 13 15  1  0  0  0
 15 16  2  0  0  0
 16 17  1  0  0  0
 17 18  1  0  0  0
 17 20  1  0  0  0
 20 21  1  0  0  0
 21 22  1  0  0  0
 21 24  1  0  0  0
 24 25  1  0  0  0
 24 27  1  0  0  0
 27 28  1  0  0  0
 27 30  1  0  0  0
 30 31  1  0  0  0
  4 19  1  0  0  0
 22 23  1  0  0  0
 25 26  1  0  0  0
 28 29  1  0  0  0
 31 32  1  0  0  0
M  END
> <minimizedAffinity>
-9.72766

$$$$
4ZZD_RBF_A_201


 32 34  0  0  0  0  0  0  0  0999 V2000
    1.4357    6.6030   86.4190 N   0  0  0  0  0  0  0  0  0  0  0  0
    0.1788    6.4613   85.9232 C   0  0  0  0  0  0  0  0  0  0  0  0
   -0.2346    7.2872   85.0781 O   0  0  0  0  0  0  0  0  0  0  0  0
   -0.6411    5.4652   86.3048 N   0  0  0  0  0  0  0  0  0  0  0  0
   -0.2762    4.5394   87.2047 C   0  0  0  0  0  0  0  0  0  0  0  0
   -1.0608    3.6241   87.5400 O   0  0  0  0  0  0  0  0  0  0  0  0
    1.0849    4.6221   87.7973 C   0  0  0  0  0  0  0  0  0  0  0  0
    1.5298    3.7277   88.7116 N   0  0  0  0  0  0  0  0  0  0  0  0
    2.7747    3.8287   89.2332 C   0  0  0  0  0  0  0  0  0  0  0  0
    3.2060    2.8943   90.1701 C   0  0  0  0  0  0  0  0  0  0  0  0
    4.4848    2.9863   90.7139 C   0  0  0  0  0  0  0  0  0  0  0  0
    4.9459    1.9699   91.7285 C   0  0  0  0  0  0  0  0  0  0  0  0
    5.3941    4.0889   90.2928 C   0  0  0  0  0  0  0  0  0  0  0  0
    6.7779    4.1931   90.8808 C   0  0  0  0  0  0  0  0  0  0  0  0
    4.9659    5.0251   89.3552 C   0  0  0  0  0  0  0  0  0  0  0  0
    3.6873    4.9331   88.8093 C   0  0  0  0  0  0  0  0  0  0  0  0
    3.2457    5.8733   87.8529 N   0  0  0  0  0  0  0  0  0  0  0  0
    1.9387    5.7447   87.3370 C   0  0  0  0  0  0  0  0  0  0  0  0
   -1.5412    5.4138   85.9093 H   0  0  0  0  0  0  0  0  0  0  0  0
    4.1013    6.9829   87.4186 C   0  0  0  0  0  0  0  0  0  0  0  0
    3.6773    8.2829   88.0911 C   0  0  0  0  0  0  0  0  0  0  0  0
    2.7592    8.9837   87.2442 O   0  0  0  0  0  0  0  0  0  0  0  0
    3.1919    9.1932   86.4017 H   0  0  0  0  0  0  0  0  0  0  0  0
    4.8930    9.1619   88.3703 C   0  0  0  0  0  0  0  0  0  0  0  0
    5.9763    8.3328   88.8040 O   0  0  0  0  0  0  0  0  0  0  0  0
    5.7265    7.8763   89.6226 H   0  0  0  0  0  0  0  0  0  0  0  0
    4.6016   10.2146   89.4392 C   0  0  0  0  0  0  0  0  0  0  0  0
    3.2383   10.6535   89.3547 O   0  0  0  0  0  0  0  0  0  0  0  0
    3.0850   11.0683   88.4913 H   0  0  0  0  0  0  0  0  0  0  0  0
    5.5415   11.4120   89.3173 C   0  0  0  0  0  0  0  0  0  0  0  0
    6.8875   11.0061   89.6003 O   0  0  0  0  0  0  0  0  0  0  0  0
    6.9362   10.6547   90.5031 H   0  0  0  0  0  0  0  0  0  0  0  0
  1  2  1  0  0  0
  1 18  2  0  0  0
  2  3  2  0  0  0
  2  4  1  0  0  0
  4  5  1  0  0  0
  5  6  2  0  0  0
  5  7  1  0  0  0
  7  8  2  0  0  0
  7 18  1  0  0  0
  8  9  1  0  0  0
  9 10  2  0  0  0
  9 16  1  0  0  0
 10 11  1  0  0  0
 11 12  1  0  0  0
 11 13  2  0  0  0
 13 14  1  0  0  0
 13 15  1  0  0  0
 15 16  2  0  0  0
 16 17  1  0  0  0
 17 18  1  0  0  0
 17 20  1  0  0  0
 20 21  1  0  0  0
 21 22  1  0  0  0
 21 24  1  0  0  0
 24 25  1  0  0  0
 24 27  1  0  0  0
 27 28  1  0  0  0
 27 30  1  0  0  0
 30 31  1  0  0  0
  4 19  1  0  0  0
 22 23  1  0  0  0
 25 26  1  0  0  0
 28 29  1  0  0  0
 31 32  1  0  0  0
M  END
> <minimizedAffinity>
-9.71623

$$$$
4ZZD_RBF_A_201


 32 34  0  0  0  0  0  0  0  0999 V2000
    6.1484    5.8972   89.4379 N   0  0  0  0  0  0  0  0  0  0  0  0
    7.0099    5.3226   90.3173 C   0  0  0  0  0  0  0  0  0  0  0  0
    8.1206    5.8643   90.5173 O   0  0  0  0  0  0  0  0  0  0  0  0
    6.7154    4.1920   90.9843 N   0  0  0  0  0  0  0  0  0  0  0  0
    5.5483    3.5489   90.8278 C   0  0  0  0  0  0  0  0  0  0  0  0
    5.3025    2.4989   91.4624 O   0  0  0  0  0  0  0  0  0  0  0  0
    4.5481    4.1116   89.8824 C   0  0  0  0  0  0  0  0  0  0  0  0
    3.3473    3.5237   89.6674 N   0  0  0  0  0  0  0  0  0  0  0  0
    2.4568    4.0600   88.8007 C   0  0  0  0  0  0  0  0  0  0  0  0
    1.2295    3.4350   88.6006 C   0  0  0  0  0  0  0  0  0  0  0  0
    0.3039    3.9768   87.7122 C   0  0  0  0  0  0  0  0  0  0  0  0
   -1.0245    3.2945   87.5005 C   0  0  0  0  0  0  0  0  0  0  0  0
    0.6284    5.2287   86.9724 C   0  0  0  0  0  0  0  0  0  0  0  0
   -0.3697    5.8168   86.0083 C   0  0  0  0  0  0  0  0  0  0  0  0
    1.8552    5.8569   87.1707 C   0  0  0  0  0  0  0  0  0  0  0  0
    2.7812    5.3165   88.0604 C   0  0  0  0  0  0  0  0  0  0  0  0
    4.0254    5.9492   88.2738 N   0  0  0  0  0  0  0  0  0  0  0  0
    4.9345    5.3581   89.1766 C   0  0  0  0  0  0  0  0  0  0  0  0
    7.3802    3.8233   91.6098 H   0  0  0  0  0  0  0  0  0  0  0  0
    4.3934    7.1756   87.5579 C   0  0  0  0  0  0  0  0  0  0  0  0
    3.9302    8.4063   88.3278 C   0  0  0  0  0  0  0  0  0  0  0  0
    2.7884    8.9768   87.6779 O   0  0  0  0  0  0  0  0  0  0  0  0
    3.0288    9.2429   86.7766 H   0  0  0  0  0  0  0  0  0  0  0  0
    5.0487    9.4414   88.4047 C   0  0  0  0  0  0  0  0  0  0  0  0
    6.2783    8.7752   88.7102 O   0  0  0  0  0  0  0  0  0  0  0  0
    6.2018    8.3336   89.5704 H   0  0  0  0  0  0  0  0  0  0  0  0
    4.7702   10.5032   89.4681 C   0  0  0  0  0  0  0  0  0  0  0  0
    3.4392   11.0196   89.3271 O   0  0  0  0  0  0  0  0  0  0  0  0
    3.3483   11.4471   88.4612 H   0  0  0  0  0  0  0  0  0  0  0  0
    5.7812   11.6456   89.3974 C   0  0  0  0  0  0  0  0  0  0  0  0
    6.8637   11.3957   90.3041 O   0  0  0  0  0  0  0  0  0  0  0  0
    6.5195   11.3317   91.2088 H   0  0  0  0  0  0  0  0  0  0  0  0
  1  2  1  0  0  0
  1 18  2  0  0  0
  2  3  2  0  0  0
  2  4  1  0  0  0
  4  5  1  0  0  0
  5  6  2  0  0  0
  5  7  1  0  0  0
  7  8  2  0  0  0
  7 18  1  0  0  0
  8  9  1  0  0  0
  9 10  2  0  0  0
  9 16  1  0  0  0
 10 11  1  0  0  0
 11 12  1  0  0  0
 11 13  2  0  0  0
 13 14  1  0  0  0
 13 15  1  0  0  0
 15 16  2  0  0  0
 16 17  1  0  0  0
 17 18  1  0  0  0
 17 20  1  0  0  0
 20 21  1  0  0  0
 21 22  1  0  0  0
 21 24  1  0  0  0
 24 25  1  0  0  0
 24 27  1  0  0  0
 27 28  1  0  0  0
 27 30  1  0  0  0
 30 31  1  0  0  0
  4 19  1  0  0  0
 22 23  1  0  0  0
 25 26  1  0  0  0
 28 29  1  0  0  0
 31 32  1  0  0  0
M  END
> <minimizedAffinity>
-9.03581

$$$$
4ZZD_RBF_A_201


 32 34  0  0  0  0  0  0  0  0999 V2000
    7.8290    1.4683   93.4657 N   0  0  0  0  0  0  0  0  0  0  0  0
    7.7951    0.2839   94.1304 C   0  0  0  0  0  0  0  0  0  0  0  0
    8.7658   -0.0304   94.8558 O   0  0  0  0  0  0  0  0  0  0  0  0
    6.7564   -0.5663   94.0406 N   0  0  0  0  0  0  0  0  0  0  0  0
    5.6781   -0.3059   93.2859 C   0  0  0  0  0  0  0  0  0  0  0  0
    4.7268   -1.1162   93.2222 O   0  0  0  0  0  0  0  0  0  0  0  0
    5.6351    0.9705   92.5246 C   0  0  0  0  0  0  0  0  0  0  0  0
    4.5841    1.3083   91.7403 N   0  0  0  0  0  0  0  0  0  0  0  0
    4.5734    2.4779   91.0593 C   0  0  0  0  0  0  0  0  0  0  0  0
    3.4791    2.7998   90.2619 C   0  0  0  0  0  0  0  0  0  0  0  0
    3.4551    4.0005   89.5566 C   0  0  0  0  0  0  0  0  0  0  0  0
    2.2657    4.3432   88.6947 C   0  0  0  0  0  0  0  0  0  0  0  0
    4.6046    4.9432   89.6547 C   0  0  0  0  0  0  0  0  0  0  0  0
    4.5833    6.2425   88.8911 C   0  0  0  0  0  0  0  0  0  0  0  0
    5.7008    4.6245   90.4521 C   0  0  0  0  0  0  0  0  0  0  0  0
    5.7251    3.4243   91.1592 C   0  0  0  0  0  0  0  0  0  0  0  0
    6.8288    3.0946   91.9759 N   0  0  0  0  0  0  0  0  0  0  0  0
    6.8121    1.8629   92.6641 C   0  0  0  0  0  0  0  0  0  0  0  0
    6.7887   -1.4100   94.5469 H   0  0  0  0  0  0  0  0  0  0  0  0
    7.9883    3.9856   92.0922 C   0  0  0  0  0  0  0  0  0  0  0  0
    8.9491    3.7712   90.9290 C   0  0  0  0  0  0  0  0  0  0  0  0
    9.9352    2.7989   91.2946 O   0  0  0  0  0  0  0  0  0  0  0  0
   10.4367    3.1193   92.0606 H   0  0  0  0  0  0  0  0  0  0  0  0
    9.6339    5.0818   90.5524 C   0  0  0  0  0  0  0  0  0  0  0  0
   11.0400    4.9565   90.7897 O   0  0  0  0  0  0  0  0  0  0  0  0
   11.1947    4.7827   91.7313 H   0  0  0  0  0  0  0  0  0  0  0  0
    9.0878    6.2614   91.3562 C   0  0  0  0  0  0  0  0  0  0  0  0
    8.2569    7.0907   90.5315 O   0  0  0  0  0  0  0  0  0  0  0  0
    8.7849    7.4562   89.8045 H   0  0  0  0  0  0  0  0  0  0  0  0
   10.2140    7.0948   91.9637 C   0  0  0  0  0  0  0  0  0  0  0  0
   10.5964    6.5468   93.2325 O   0  0  0  0  0  0  0  0  0  0  0  0
    9.8342    6.5577   93.8324 H   0  0  0  0  0  0  0  0  0  0  0  0
  1  2  1  0  0  0
  1 18  2  0  0  0
  2  3  2  0  0  0
  2  4  1  0  0  0
  4  5  1  0  0  0
  5  6  2  0  0  0
  5  7  1  0  0  0
  7  8  2  0  0  0
  7 18  1  0  0  0
  8  9  1  0  0  0
  9 10  2  0  0  0
  9 16  1  0  0  0
 10 11  1  0  0  0
 11 12  1  0  0  0
 11 13  2  0  0  0
 13 14  1  0  0  0
 13 15  1  0  0  0
 15 16  2  0  0  0
 16 17  1  0  0  0
 17 18  1  0  0  0
 17 20  1  0  0  0
 20 21  1  0  0  0
 21 22  1  0  0  0
 21 24  1  0  0  0
 24 25  1  0  0  0
 24 27  1  0  0  0
 27 28  1  0  0  0
 27 30  1  0  0  0
 30 31  1  0  0  0
  4 19  1  0  0  0
 22 23  1  0  0  0
 25 26  1  0  0  0
 28 29  1  0  0  0
 31 32  1  0  0  0
M  END
> <minimizedAffinity>
-9.02634

$$$$
4ZZD_RBF_A_201


 32 34  0  0  0  0  0  0  0  0999 V2000
    5.2148    6.7163   89.5145 N   0  0  0  0  0  0  0  0  0  0  0  0
    5.7212    5.7346   90.3054 C   0  0  0  0  0  0  0  0  0  0  0  0
    6.7804    5.9522   90.9361 O   0  0  0  0  0  0  0  0  0  0  0  0
    5.1272    4.5349   90.4388 N   0  0  0  0  0  0  0  0  0  0  0  0
    3.9908    4.2207   89.7984 C   0  0  0  0  0  0  0  0  0  0  0  0
    3.4611    3.0963   89.9424 O   0  0  0  0  0  0  0  0  0  0  0  0
    3.3700    5.2399   88.9114 C   0  0  0  0  0  0  0  0  0  0  0  0
    2.2243    5.0021   88.2299 N   0  0  0  0  0  0  0  0  0  0  0  0
    1.6825    5.9501   87.4300 C   0  0  0  0  0  0  0  0  0  0  0  0
    0.5032    5.6785   86.7427 C   0  0  0  0  0  0  0  0  0  0  0  0
   -0.0651    6.6454   85.9171 C   0  0  0  0  0  0  0  0  0  0  0  0
   -1.3436    6.3445   85.1754 C   0  0  0  0  0  0  0  0  0  0  0  0
    0.5915    7.9745   85.7678 C   0  0  0  0  0  0  0  0  0  0  0  0
   -0.0192    9.0227   84.8734 C   0  0  0  0  0  0  0  0  0  0  0  0
    1.7712    8.2497   86.4546 C   0  0  0  0  0  0  0  0  0  0  0  0
    2.3397    7.2836   87.2820 C   0  0  0  0  0  0  0  0  0  0  0  0
    3.5321    7.5548   87.9881 N   0  0  0  0  0  0  0  0  0  0  0  0
    4.0752    6.5409   88.8053 C   0  0  0  0  0  0  0  0  0  0  0  0
    5.5412    3.8633   91.0277 H   0  0  0  0  0  0  0  0  0  0  0  0
    4.2205    8.8440   87.8614 C   0  0  0  0  0  0  0  0  0  0  0  0
    4.1961    9.5981   89.1853 C   0  0  0  0  0  0  0  0  0  0  0  0
    3.0696   10.4821   89.2130 O   0  0  0  0  0  0  0  0  0  0  0  0
    3.1435   11.1229   88.4885 H   0  0  0  0  0  0  0  0  0  0  0  0
    5.4824   10.3982   89.3688 C   0  0  0  0  0  0  0  0  0  0  0  0
    5.2055   11.7832   89.1364 O   0  0  0  0  0  0  0  0  0  0  0  0
    4.8911   11.9019   88.2265 H   0  0  0  0  0  0  0  0  0  0  0  0
    6.5827    9.9347   88.4147 C   0  0  0  0  0  0  0  0  0  0  0  0
    7.3261    8.8518   88.9918 O   0  0  0  0  0  0  0  0  0  0  0  0
    7.7581    9.1540   89.8060 H   0  0  0  0  0  0  0  0  0  0  0  0
    7.5274   11.0781   88.0511 C   0  0  0  0  0  0  0  0  0  0  0  0
    7.0745   11.7227   86.8529 O   0  0  0  0  0  0  0  0  0  0  0  0
    7.0589   11.0804   86.1262 H   0  0  0  0  0  0  0  0  0  0  0  0
  1  2  1  0  0  0
  1 18  2  0  0  0
  2  3  2  0  0  0
  2  4  1  0  0  0
  4  5  1  0  0  0
  5  6  2  0  0  0
  5  7  1  0  0  0
  7  8  2  0  0  0
  7 18  1  0  0  0
  8  9  1  0  0  0
  9 10  2  0  0  0
  9 16  1  0  0  0
 10 11  1  0  0  0
 11 12  1  0  0  0
 11 13  2  0  0  0
 13 14  1  0  0  0
 13 15  1  0  0  0
 15 16  2  0  0  0
 16 17  1  0  0  0
 17 18  1  0  0  0
 17 20  1  0  0  0
 20 21  1  0  0  0
 21 22  1  0  0  0
 21 24  1  0  0  0
 24 25  1  0  0  0
 24 27  1  0  0  0
 27 28  1  0  0  0
 27 30  1  0  0  0
 30 31  1  0  0  0
  4 19  1  0  0  0
 22 23  1  0  0  0
 25 26  1  0  0  0
 28 29  1  0  0  0
 31 32  1  0  0  0
M  END
> <minimizedAffinity>
-8.90463

$$$$
4ZZD_RBF_A_201


 32 34  0  0  0  0  0  0  0  0999 V2000
    1.1772    8.5471   86.0824 N   0  0  0  0  0  0  0  0  0  0  0  0
    0.0868    8.5534   85.2720 C   0  0  0  0  0  0  0  0  0  0  0  0
   -0.1870    9.5954   84.6346 O   0  0  0  0  0  0  0  0  0  0  0  0
   -0.7119    7.4807   85.1262 N   0  0  0  0  0  0  0  0  0  0  0  0
   -0.4894    6.3262   85.7726 C   0  0  0  0  0  0  0  0  0  0  0  0
   -1.2500    5.3449   85.6167 O   0  0  0  0  0  0  0  0  0  0  0  0
    0.6844    6.2350   86.6806 C   0  0  0  0  0  0  0  0  0  0  0  0
    0.9785    5.1068   87.3694 N   0  0  0  0  0  0  0  0  0  0  0  0
    2.0546    5.0538   88.1885 C   0  0  0  0  0  0  0  0  0  0  0  0
    2.3337    3.8804   88.8828 C   0  0  0  0  0  0  0  0  0  0  0  0
    3.4383    3.8123   89.7282 C   0  0  0  0  0  0  0  0  0  0  0  0
    3.7351    2.5372   90.4774 C   0  0  0  0  0  0  0  0  0  0  0  0
    4.3239    4.9993   89.8912 C   0  0  0  0  0  0  0  0  0  0  0  0
    5.5189    4.9303   90.8070 C   0  0  0  0  0  0  0  0  0  0  0  0
    4.0479    6.1747   89.1975 C   0  0  0  0  0  0  0  0  0  0  0  0
    2.9440    6.2434   88.3503 C   0  0  0  0  0  0  0  0  0  0  0  0
    2.6590    7.4282   87.6371 N   0  0  0  0  0  0  0  0  0  0  0  0
    1.5237    7.4526   86.7996 C   0  0  0  0  0  0  0  0  0  0  0  0
   -1.4876    7.5452   84.5234 H   0  0  0  0  0  0  0  0  0  0  0  0
    3.4950    8.6256   87.7766 C   0  0  0  0  0  0  0  0  0  0  0  0
    4.4359    8.7652   86.5861 C   0  0  0  0  0  0  0  0  0  0  0  0
    4.7126    7.4707   86.0392 O   0  0  0  0  0  0  0  0  0  0  0  0
    5.1397    6.9194   86.7134 H   0  0  0  0  0  0  0  0  0  0  0  0
    5.7402    9.4336   87.0108 C   0  0  0  0  0  0  0  0  0  0  0  0
    5.4586   10.3945   88.0337 O   0  0  0  0  0  0  0  0  0  0  0  0
    4.8596   11.0727   87.6842 H   0  0  0  0  0  0  0  0  0  0  0  0
    6.4317   10.1295   85.8388 C   0  0  0  0  0  0  0  0  0  0  0  0
    6.5904    9.2231   84.7380 O   0  0  0  0  0  0  0  0  0  0  0  0
    7.1552    8.4822   85.0081 H   0  0  0  0  0  0  0  0  0  0  0  0
    7.7903   10.6957   86.2459 C   0  0  0  0  0  0  0  0  0  0  0  0
    7.6210   11.9897   86.8403 O   0  0  0  0  0  0  0  0  0  0  0  0
    7.2067   12.5883   86.1993 H   0  0  0  0  0  0  0  0  0  0  0  0
  1  2  1  0  0  0
  1 18  2  0  0  0
  2  3  2  0  0  0
  2  4  1  0  0  0
  4  5  1  0  0  0
  5  6  2  0  0  0
  5  7  1  0  0  0
  7  8  2  0  0  0
  7 18  1  0  0  0
  8  9  1  0  0  0
  9 10  2  0  0  0
  9 16  1  0  0  0
 10 11  1  0  0  0
 11 12  1  0  0  0
 11 13  2  0  0  0
 13 14  1  0  0  0
 13 15  1  0  0  0
 15 16  2  0  0  0
 16 17  1  0  0  0
 17 18  1  0  0  0
 17 20  1  0  0  0
 20 21  1  0  0  0
 21 22  1  0  0  0
 21 24  1  0  0  0
 24 25  1  0  0  0
 24 27  1  0  0  0
 27 28  1  0  0  0
 27 30  1  0  0  0
 30 31  1  0  0  0
  4 19  1  0  0  0
 22 23  1  0  0  0
 25 26  1  0  0  0
 28 29  1  0  0  0
 31 32  1  0  0  0
M  END
> <minimizedAffinity>
-8.76335

$$$$
4ZZD_RBF_A_201


 32 34  0  0  0  0  0  0  0  0999 V2000
   -1.8344    6.0271   85.0374 N   0  0  0  0  0  0  0  0  0  0  0  0
   -2.2765    7.0420   84.2499 C   0  0  0  0  0  0  0  0  0  0  0  0
   -3.3375    6.8877   83.6036 O   0  0  0  0  0  0  0  0  0  0  0  0
   -1.6181    8.2097   84.1376 N   0  0  0  0  0  0  0  0  0  0  0  0
   -0.4749    8.4561   84.7954 C   0  0  0  0  0  0  0  0  0  0  0  0
    0.1151    9.5524   84.6712 O   0  0  0  0  0  0  0  0  0  0  0  0
    0.0785    7.3965   85.6796 C   0  0  0  0  0  0  0  0  0  0  0  0
    1.2266    7.5655   86.3775 N   0  0  0  0  0  0  0  0  0  0  0  0
    1.7056    6.5824   87.1750 C   0  0  0  0  0  0  0  0  0  0  0  0
    2.8872    6.7844   87.8820 C   0  0  0  0  0  0  0  0  0  0  0  0
    3.3905    5.7814   88.7067 C   0  0  0  0  0  0  0  0  0  0  0  0
    4.6715    6.0073   89.4704 C   0  0  0  0  0  0  0  0  0  0  0  0
    2.6629    4.4873   88.8321 C   0  0  0  0  0  0  0  0  0  0  0  0
    3.2056    3.3985   89.7218 C   0  0  0  0  0  0  0  0  0  0  0  0
    1.4800    4.2821   88.1266 C   0  0  0  0  0  0  0  0  0  0  0  0
    0.9748    5.2855   87.3025 C   0  0  0  0  0  0  0  0  0  0  0  0
   -0.2273    5.0902   86.5880 N   0  0  0  0  0  0  0  0  0  0  0  0
   -0.6932    6.1318   85.7579 C   0  0  0  0  0  0  0  0  0  0  0  0
   -1.9885    8.9088   83.5516 H   0  0  0  0  0  0  0  0  0  0  0  0
   -0.9703    3.8280   86.6703 C   0  0  0  0  0  0  0  0  0  0  0  0
   -2.1690    3.9702   87.6004 C   0  0  0  0  0  0  0  0  0  0  0  0
   -2.0789    3.0001   88.6502 O   0  0  0  0  0  0  0  0  0  0  0  0
   -2.0828    2.1086   88.2679 H   0  0  0  0  0  0  0  0  0  0  0  0
   -3.4708    3.7739   86.8290 C   0  0  0  0  0  0  0  0  0  0  0  0
   -4.4014    3.0709   87.6588 O   0  0  0  0  0  0  0  0  0  0  0  0
   -4.0387    2.2004   87.8858 H   0  0  0  0  0  0  0  0  0  0  0  0
   -3.2536    2.9902   85.5350 C   0  0  0  0  0  0  0  0  0  0  0  0
   -3.8325    3.6861   84.4219 O   0  0  0  0  0  0  0  0  0  0  0  0
   -4.7902    3.7667   84.5536 H   0  0  0  0  0  0  0  0  0  0  0  0
   -3.8372    1.5821   85.6280 C   0  0  0  0  0  0  0  0  0  0  0  0
   -3.0407    0.7815   86.5118 O   0  0  0  0  0  0  0  0  0  0  0  0
   -2.1342    0.7277   86.1708 H   0  0  0  0  0  0  0  0  0  0  0  0
  1  2  1  0  0  0
  1 18  2  0  0  0
  2  3  2  0  0  0
  2  4  1  0  0  0
  4  5  1  0  0  0
  5  6  2  0  0  0
  5  7  1  0  0  0
  7  8  2  0  0  0
  7 18  1  0  0  0
  8  9  1  0  0  0
  9 10  2  0  0  0
  9 16  1  0  0  0
 10 11  1  0  0  0
 11 12  1  0  0  0
 11 13  2  0  0  0
 13 14  1  0  0  0
 13 15  1  0  0  0
 15 16  2  0  0  0
 16 17  1  0  0  0
 17 18  1  0  0  0
 17 20  1  0  0  0
 20 21  1  0  0  0
 21 22  1  0  0  0
 21 24  1  0  0  0
 24 25  1  0  0  0
 24 27  1  0  0  0
 27 28  1  0  0  0
 27 30  1  0  0  0
 30 31  1  0  0  0
  4 19  1  0  0  0
 22 23  1  0  0  0
 25 26  1  0  0  0
 28 29  1  0  0  0
 31 32  1  0  0  0
M  END
> <minimizedAffinity>
-8.74916

$$$$
4ZZD_RBF_A_201


 32 34  0  0  0  0  0  0  0  0999 V2000
    3.9027    1.0703   92.0253 N   0  0  0  0  0  0  0  0  0  0  0  0
    3.1646    0.0175   91.5867 C   0  0  0  0  0  0  0  0  0  0  0  0
    2.1443    0.2401   90.8963 O   0  0  0  0  0  0  0  0  0  0  0  0
    3.4882   -1.2584   91.8647 N   0  0  0  0  0  0  0  0  0  0  0  0
    4.5642   -1.5833   92.5974 C   0  0  0  0  0  0  0  0  0  0  0  0
    4.8401   -2.7795   92.8394 O   0  0  0  0  0  0  0  0  0  0  0  0
    5.4267   -0.4893   93.1170 C   0  0  0  0  0  0  0  0  0  0  0  0
    6.5298   -0.7325   93.8639 N   0  0  0  0  0  0  0  0  0  0  0  0
    7.2959    0.2846   94.3227 C   0  0  0  0  0  0  0  0  0  0  0  0
    8.4250    0.0050   95.0868 C   0  0  0  0  0  0  0  0  0  0  0  0
    9.2223    1.0421   95.5643 C   0  0  0  0  0  0  0  0  0  0  0  0
   10.4449    0.7319   96.3914 C   0  0  0  0  0  0  0  0  0  0  0  0
    8.8654    2.4558   95.2577 C   0  0  0  0  0  0  0  0  0  0  0  0
    9.7244    3.5811   95.7747 C   0  0  0  0  0  0  0  0  0  0  0  0
    7.7366    2.7390   94.4929 C   0  0  0  0  0  0  0  0  0  0  0  0
    6.9393    1.7021   94.0134 C   0  0  0  0  0  0  0  0  0  0  0  0
    5.7964    1.9781   93.2315 N   0  0  0  0  0  0  0  0  0  0  0  0
    5.0142    0.8949   92.7777 C   0  0  0  0  0  0  0  0  0  0  0  0
    2.9148   -1.9797   91.5180 H   0  0  0  0  0  0  0  0  0  0  0  0
    5.3989    3.3544   92.9158 C   0  0  0  0  0  0  0  0  0  0  0  0
    6.1306    3.8537   91.6759 C   0  0  0  0  0  0  0  0  0  0  0  0
    7.0244    4.9119   92.0403 O   0  0  0  0  0  0  0  0  0  0  0  0
    6.5180    5.6457   92.4222 H   0  0  0  0  0  0  0  0  0  0  0  0
    5.1358    4.3566   90.6340 C   0  0  0  0  0  0  0  0  0  0  0  0
    4.2804    3.2756   90.2482 O   0  0  0  0  0  0  0  0  0  0  0  0
    4.8128    2.5665   89.8549 H   0  0  0  0  0  0  0  0  0  0  0  0
    5.8392    4.9123   89.3962 C   0  0  0  0  0  0  0  0  0  0  0  0
    7.2191    4.5198   89.3828 O   0  0  0  0  0  0  0  0  0  0  0  0
    7.6677    4.8882   90.1599 H   0  0  0  0  0  0  0  0  0  0  0  0
    5.7311    6.4340   89.3262 C   0  0  0  0  0  0  0  0  0  0  0  0
    6.9305    7.0321   89.8363 O   0  0  0  0  0  0  0  0  0  0  0  0
    7.0574    6.7649   90.7601 H   0  0  0  0  0  0  0  0  0  0  0  0
  1  2  1  0  0  0
  1 18  2  0  0  0
  2  3  2  0  0  0
  2  4  1  0  0  0
  4  5  1  0  0  0
  5  6  2  0  0  0
  5  7  1  0  0  0
  7  8  2  0  0  0
  7 18  1  0  0  0
  8  9  1  0  0  0
  9 10  2  0  0  0
  9 16  1  0  0  0
 10 11  1  0  0  0
 11 12  1  0  0  0
 11 13  2  0  0  0
 13 14  1  0  0  0
 13 15  1  0  0  0
 15 16  2  0  0  0
 16 17  1  0  0  0
 17 18  1  0  0  0
 17 20  1  0  0  0
 20 21  1  0  0  0
 21 22  1  0  0  0
 21 24  1  0  0  0
 24 25  1  0  0  0
 24 27  1  0  0  0
 27 28  1  0  0  0
 27 30  1  0  0  0
 30 31  1  0  0  0
  4 19  1  0  0  0
 22 23  1  0  0  0
 25 26  1  0  0  0
 28 29  1  0  0  0
 31 32  1  0  0  0
M  END
> <minimizedAffinity>
-8.48239

$$$$
4ZZD_RBF_A_201


 32 34  0  0  0  0  0  0  0  0999 V2000
    2.9872    6.1139   87.4425 N   0  0  0  0  0  0  0  0  0  0  0  0
    1.7726    6.0522   86.8370 C   0  0  0  0  0  0  0  0  0  0  0  0
    1.4764    6.9213   85.9860 O   0  0  0  0  0  0  0  0  0  0  0  0
    0.8736    5.0910   87.1156 N   0  0  0  0  0  0  0  0  0  0  0  0
    1.1117    4.1232   88.0139 C   0  0  0  0  0  0  0  0  0  0  0  0
    0.2560    3.2419   88.2519 O   0  0  0  0  0  0  0  0  0  0  0  0
    2.4186    4.1179   88.7229 C   0  0  0  0  0  0  0  0  0  0  0  0
    2.7368    3.1769   89.6433 N   0  0  0  0  0  0  0  0  0  0  0  0
    3.9351    3.1978   90.2722 C   0  0  0  0  0  0  0  0  0  0  0  0
    4.2358    2.2170   91.2127 C   0  0  0  0  0  0  0  0  0  0  0  0
    5.4654    2.2266   91.8664 C   0  0  0  0  0  0  0  0  0  0  0  0
    5.7848    1.1602   92.8842 C   0  0  0  0  0  0  0  0  0  0  0  0
    6.4622    3.2905   91.5594 C   0  0  0  0  0  0  0  0  0  0  0  0
    7.7931    3.3056   92.2665 C   0  0  0  0  0  0  0  0  0  0  0  0
    6.1648    4.2731   90.6185 C   0  0  0  0  0  0  0  0  0  0  0  0
    4.9355    4.2634   89.9628 C   0  0  0  0  0  0  0  0  0  0  0  0
    4.6266    5.2512   89.0022 N   0  0  0  0  0  0  0  0  0  0  0  0
    3.3647    5.2058   88.3727 C   0  0  0  0  0  0  0  0  0  0  0  0
    0.0098    5.0979   86.6433 H   0  0  0  0  0  0  0  0  0  0  0  0
    5.5715    6.3254   88.6776 C   0  0  0  0  0  0  0  0  0  0  0  0
    5.4099    7.4927   89.6437 C   0  0  0  0  0  0  0  0  0  0  0  0
    4.4440    7.1554   90.6460 O   0  0  0  0  0  0  0  0  0  0  0  0
    3.5890    6.9770   90.2241 H   0  0  0  0  0  0  0  0  0  0  0  0
    4.9611    8.7460   88.8980 C   0  0  0  0  0  0  0  0  0  0  0  0
    3.5765    8.6146   88.5594 O   0  0  0  0  0  0  0  0  0  0  0  0
    3.4570    7.8465   87.9793 H   0  0  0  0  0  0  0  0  0  0  0  0
    5.7747    8.9730   87.6243 C   0  0  0  0  0  0  0  0  0  0  0  0
    6.6168   10.1261   87.7638 O   0  0  0  0  0  0  0  0  0  0  0  0
    6.0669   10.9136   87.8996 H   0  0  0  0  0  0  0  0  0  0  0  0
    4.8712    9.1338   86.4036 C   0  0  0  0  0  0  0  0  0  0  0  0
    4.5861    7.8485   85.8351 O   0  0  0  0  0  0  0  0  0  0  0  0
    5.4149    7.4242   85.5631 H   0  0  0  0  0  0  0  0  0  0  0  0
  1  2  1  0  0  0
  1 18  2  0  0  0
  2  3  2  0  0  0
  2  4  1  0  0  0
  4  5  1  0  0  0
  5  6  2  0  0  0
  5  7  1  0  0  0
  7  8  2  0  0  0
  7 18  1  0  0  0
  8  9  1  0  0  0
  9 10  2  0  0  0
  9 16  1  0  0  0
 10 11  1  0  0  0
 11 12  1  0  0  0
 11 13  2  0  0  0
 13 14  1  0  0  0
 13 15  1  0  0  0
 15 16  2  0  0  0
 16 17  1  0  0  0
 17 18  1  0  0  0
 17 20  1  0  0  0
 20 21  1  0  0  0
 21 22  1  0  0  0
 21 24  1  0  0  0
 24 25  1  0  0  0
 24 27  1  0  0  0
 27 28  1  0  0  0
 27 30  1  0  0  0
 30 31  1  0  0  0
  4 19  1  0  0  0
 22 23  1  0  0  0
 25 26  1  0  0  0
 28 29  1  0  0  0
 31 32  1  0  0  0
M  END
> <minimizedAffinity>
-8.43949

$$$$
4ZZD_RBF_A_201


 32 34  0  0  0  0  0  0  0  0999 V2000
   -1.7316    6.1756   85.3333 N   0  0  0  0  0  0  0  0  0  0  0  0
   -2.0464    7.0754   84.3654 C   0  0  0  0  0  0  0  0  0  0  0  0
   -3.2150    7.0972   83.9169 O   0  0  0  0  0  0  0  0  0  0  0  0
   -1.1498    7.9470   83.8691 N   0  0  0  0  0  0  0  0  0  0  0  0
    0.1221    7.9896   84.2942 C   0  0  0  0  0  0  0  0  0  0  0  0
    0.9336    8.8120   83.8137 O   0  0  0  0  0  0  0  0  0  0  0  0
    0.5496    7.0371   85.3529 C   0  0  0  0  0  0  0  0  0  0  0  0
    1.8144    7.0151   85.8362 N   0  0  0  0  0  0  0  0  0  0  0  0
    2.1740    6.1365   86.8008 C   0  0  0  0  0  0  0  0  0  0  0  0
    3.4807    6.1374   87.2800 C   0  0  0  0  0  0  0  0  0  0  0  0
    3.8636    5.2391   88.2729 C   0  0  0  0  0  0  0  0  0  0  0  0
    5.2812    5.2460   88.7879 C   0  0  0  0  0  0  0  0  0  0  0  0
    2.8721    4.2728   88.8235 C   0  0  0  0  0  0  0  0  0  0  0  0
    3.2832    3.2975   89.8965 C   0  0  0  0  0  0  0  0  0  0  0  0
    1.5638    4.2695   88.3467 C   0  0  0  0  0  0  0  0  0  0  0  0
    1.1793    5.1689   87.3545 C   0  0  0  0  0  0  0  0  0  0  0  0
   -0.1465    5.1785   86.8689 N   0  0  0  0  0  0  0  0  0  0  0  0
   -0.4852    6.1007   85.8561 C   0  0  0  0  0  0  0  0  0  0  0  0
   -1.4374    8.5764   83.1688 H   0  0  0  0  0  0  0  0  0  0  0  0
   -1.1527    4.2368   87.3717 C   0  0  0  0  0  0  0  0  0  0  0  0
   -1.3672    3.0999   86.3800 C   0  0  0  0  0  0  0  0  0  0  0  0
   -2.6997    3.1634   85.8586 O   0  0  0  0  0  0  0  0  0  0  0  0
   -3.3358    3.0701   86.5848 H   0  0  0  0  0  0  0  0  0  0  0  0
   -1.1434    1.7507   87.0566 C   0  0  0  0  0  0  0  0  0  0  0  0
   -2.0917    0.8098   86.5425 O   0  0  0  0  0  0  0  0  0  0  0  0
   -2.9906    1.1143   86.7430 H   0  0  0  0  0  0  0  0  0  0  0  0
   -1.2933    1.8428   88.5748 C   0  0  0  0  0  0  0  0  0  0  0  0
   -0.1802    1.2178   89.2293 O   0  0  0  0  0  0  0  0  0  0  0  0
   -0.1562    0.2761   88.9980 H   0  0  0  0  0  0  0  0  0  0  0  0
   -2.5986    1.2072   89.0484 C   0  0  0  0  0  0  0  0  0  0  0  0
   -3.7142    1.9748   88.5764 O   0  0  0  0  0  0  0  0  0  0  0  0
   -3.6559    2.8780   88.9251 H   0  0  0  0  0  0  0  0  0  0  0  0
  1  2  1  0  0  0
  1 18  2  0  0  0
  2  3  2  0  0  0
  2  4  1  0  0  0
  4  5  1  0  0  0
  5  6  2  0  0  0
  5  7  1  0  0  0
  7  8  2  0  0  0
  7 18  1  0  0  0
  8  9  1  0  0  0
  9 10  2  0  0  0
  9 16  1  0  0  0
 10 11  1  0  0  0
 11 12  1  0  0  0
 11 13  2  0  0  0
 13 14  1  0  0  0
 13 15  1  0  0  0
 15 16  2  0  0  0
 16 17  1  0  0  0
 17 18  1  0  0  0
 17 20  1  0  0  0
 20 21  1  0  0  0
 21 22  1  0  0  0
 21 24  1  0  0  0
 24 25  1  0  0  0
 24 27  1  0  0  0
 27 28  1  0  0  0
 27 30  1  0  0  0
 30 31  1  0  0  0
  4 19  1  0  0  0
 22 23  1  0  0  0
 25 26  1  0  0  0
 28 29  1  0  0  0
 31 32  1  0  0  0
M  END
> <minimizedAffinity>
-8.36159

$$$$
