1HPV_478_B_200


 39 41  0  0  0  0  0  0  0  0999 V2000
    9.4622   18.0937    9.1400 C   0  0  0  0  0  0  0  0  0  0  0  0
   10.4202   19.0561    9.4199 O   0  0  0  0  0  0  0  0  0  0  0  0
   11.0731   18.6921   10.0381 H   0  0  0  0  0  0  0  0  0  0  0  0
   10.1502   16.8928    8.3333 C   0  0  0  0  0  0  0  0  0  0  0  0
    9.1160   15.8404    6.3315 C   0  0  0  0  0  0  0  0  0  0  0  0
    9.6147   16.8619    6.9919 N   0  0  0  0  0  0  0  0  0  0  0  0
    8.6488   14.8615    6.7770 O   0  0  0  0  0  0  0  0  0  0  0  0
    9.6246   17.7193    6.5083 H   0  0  0  0  0  0  0  0  0  0  0  0
    9.0167   16.2733    5.0105 O   0  0  0  0  0  0  0  0  0  0  0  0
   10.8996   15.3660    3.7765 C   0  0  0  0  0  0  0  0  0  0  0  0
    9.0221   16.3494    2.6190 C   0  0  0  0  0  0  0  0  0  0  0  0
    9.3723   15.5173    3.8527 C   0  0  0  0  0  0  0  0  0  0  0  0
   10.3544   16.6499    1.9208 C   0  0  0  0  0  0  0  0  0  0  0  0
   11.4108   16.3048    2.7984 O   0  0  0  0  0  0  0  0  0  0  0  0
   11.7341   16.8654    8.2103 C   0  0  0  0  0  0  0  0  0  0  0  0
   12.2948   15.5104    8.5490 C   0  0  0  0  0  0  0  0  0  0  0  0
   13.6508   15.2145    8.1611 C   0  0  0  0  0  0  0  0  0  0  0  0
   11.4588   14.4571    9.0854 C   0  0  0  0  0  0  0  0  0  0  0  0
   14.1883   13.8833    8.2494 C   0  0  0  0  0  0  0  0  0  0  0  0
   12.0128   13.1164    9.1881 C   0  0  0  0  0  0  0  0  0  0  0  0
   13.3853   12.8196    8.7641 C   0  0  0  0  0  0  0  0  0  0  0  0
    8.7996   17.8366   10.5678 C   0  0  0  0  0  0  0  0  0  0  0  0
    7.3279   17.9852   10.6451 N   0  0  0  0  0  0  0  0  0  0  0  0
    5.3685   17.1324   12.2116 O   0  0  0  0  0  0  0  0  0  0  0  0
    6.2375   19.2880   12.7272 O   0  0  0  0  0  0  0  0  0  0  0  0
    6.5597   17.9805   12.2488 S   0  0  0  0  0  0  0  0  0  0  0  0
    7.5350   17.3465   13.5002 C   0  0  0  0  0  0  0  0  0  0  0  0
    8.1096   16.0354   13.4181 C   0  0  0  0  0  0  0  0  0  0  0  0
    8.9983   15.5873   14.4401 C   0  0  0  0  0  0  0  0  0  0  0  0
    9.3064   16.4777   15.5092 C   0  0  0  0  0  0  0  0  0  0  0  0
    8.6909   17.7290   15.6127 C   0  0  0  0  0  0  0  0  0  0  0  0
    7.8038   18.1620   14.6032 C   0  0  0  0  0  0  0  0  0  0  0  0
   10.0846   16.0852   16.4820 N   0  0  0  0  0  0  0  0  0  0  0  0
   10.5296   15.2084   16.4331 H   0  0  0  0  0  0  0  0  0  0  0  0
   10.2261   16.6662   17.2641 H   0  0  0  0  0  0  0  0  0  0  0  0
    6.6064   17.4528    9.3734 C   0  0  0  0  0  0  0  0  0  0  0  0
    5.5775   18.4750    8.9133 C   0  0  0  0  0  0  0  0  0  0  0  0
    5.9079   19.9487    9.2224 C   0  0  0  0  0  0  0  0  0  0  0  0
    4.8665   18.2211    7.5718 C   0  0  0  0  0  0  0  0  0  0  0  0
 10 12  1  0  0  0
 10 14  1  0  0  0
 11 12  1  0  0  0
 11 13  1  0  0  0
  5  6  1  0  0  0
  5  9  1  0  0  0
  5  7  2  0  0  0
 12  9  1  0  0  0
  4  1  1  0  0  0
  4 15  1  0  0  0
  4  6  1  0  0  0
  1 22  1  0  0  0
  1  2  1  0  0  0
 15 16  1  0  0  0
 16 17  2  0  0  0
 16 18  1  0  0  0
 17 19  1  0  0  0
 18 20  2  0  0  0
 19 21  2  0  0  0
 20 21  1  0  0  0
 22 23  1  0  0  0
 36 37  1  0  0  0
 36 23  1  0  0  0
 37 38  1  0  0  0
 37 39  1  0  0  0
 27 28  2  0  0  0
 27 32  1  0  0  0
 27 26  1  0  0  0
 28 29  1  0  0  0
 29 30  2  0  0  0
 30 31  1  0  0  0
 30 33  1  0  0  0
 31 32  2  0  0  0
 13 14  1  0  0  0
 23 26  1  0  0  0
 24 26  2  0  0  0
 25 26  2  0  0  0
  6  8  1  0  0  0
 33 34  1  0  0  0
 33 35  1  0  0  0
  2  3  1  0  0  0
M  END
> <minimizedAffinity>
-9.70736

$$$$
1HPV_478_B_200


 39 41  0  0  0  0  0  0  0  0999 V2000
   10.5543   17.9762    7.5457 C   0  0  0  0  0  0  0  0  0  0  0  0
   11.6446   18.8032    7.7686 O   0  0  0  0  0  0  0  0  0  0  0  0
   12.2916   18.3422    8.3253 H   0  0  0  0  0  0  0  0  0  0  0  0
   11.0218   16.7244    6.6622 C   0  0  0  0  0  0  0  0  0  0  0  0
   12.6401   15.6418    8.2094 C   0  0  0  0  0  0  0  0  0  0  0  0
   11.5089   15.6863    7.5410 N   0  0  0  0  0  0  0  0  0  0  0  0
   13.3055   16.5461    8.5478 O   0  0  0  0  0  0  0  0  0  0  0  0
   10.9151   14.9093    7.6542 H   0  0  0  0  0  0  0  0  0  0  0  0
   12.7472   14.3268    8.6583 O   0  0  0  0  0  0  0  0  0  0  0  0
   14.4407   13.9156    6.9689 C   0  0  0  0  0  0  0  0  0  0  0  0
   12.7988   12.2291    7.5086 C   0  0  0  0  0  0  0  0  0  0  0  0
   13.6386   13.3368    8.1448 C   0  0  0  0  0  0  0  0  0  0  0  0
   13.1405   12.2466    6.0134 C   0  0  0  0  0  0  0  0  0  0  0  0
   13.8658   13.4295    5.7309 O   0  0  0  0  0  0  0  0  0  0  0  0
    9.9732   16.0537    5.6748 C   0  0  0  0  0  0  0  0  0  0  0  0
   10.4475   16.0965    4.2471 C   0  0  0  0  0  0  0  0  0  0  0  0
    9.5129   16.5005    3.2273 C   0  0  0  0  0  0  0  0  0  0  0  0
   11.7439   15.5783    3.8637 C   0  0  0  0  0  0  0  0  0  0  0  0
    9.8148   16.3608    1.8280 C   0  0  0  0  0  0  0  0  0  0  0  0
   12.0503   15.4549    2.4475 C   0  0  0  0  0  0  0  0  0  0  0  0
   11.0811   15.8426    1.4169 C   0  0  0  0  0  0  0  0  0  0  0  0
    9.9753   17.7599    9.0160 C   0  0  0  0  0  0  0  0  0  0  0  0
    8.6709   17.0647    9.1124 N   0  0  0  0  0  0  0  0  0  0  0  0
    9.5702   14.5836    9.3473 O   0  0  0  0  0  0  0  0  0  0  0  0
    7.2992   14.9215    9.9765 O   0  0  0  0  0  0  0  0  0  0  0  0
    8.6057   15.5002    9.9549 S   0  0  0  0  0  0  0  0  0  0  0  0
    9.0193   15.5691   11.6113 C   0  0  0  0  0  0  0  0  0  0  0  0
   10.3251   15.9708   12.0466 C   0  0  0  0  0  0  0  0  0  0  0  0
   10.5942   16.1103   13.4406 C   0  0  0  0  0  0  0  0  0  0  0  0
    9.5363   15.8647   14.3634 C   0  0  0  0  0  0  0  0  0  0  0  0
    8.2860   15.4117   13.9312 C   0  0  0  0  0  0  0  0  0  0  0  0
    8.0297   15.2654   12.5505 C   0  0  0  0  0  0  0  0  0  0  0  0
    9.7589   15.9443   15.6479 N   0  0  0  0  0  0  0  0  0  0  0  0
   10.6310   16.2602   15.9777 H   0  0  0  0  0  0  0  0  0  0  0  0
    9.0545   15.6883   16.2863 H   0  0  0  0  0  0  0  0  0  0  0  0
    7.7177   17.4178    7.9343 C   0  0  0  0  0  0  0  0  0  0  0  0
    6.4682   18.0913    8.4822 C   0  0  0  0  0  0  0  0  0  0  0  0
    6.6771   19.4771    9.1244 C   0  0  0  0  0  0  0  0  0  0  0  0
    5.1565   17.9146    7.6961 C   0  0  0  0  0  0  0  0  0  0  0  0
 10 12  1  0  0  0
 10 14  1  0  0  0
 11 12  1  0  0  0
 11 13  1  0  0  0
  5  6  1  0  0  0
  5  9  1  0  0  0
  5  7  2  0  0  0
 12  9  1  0  0  0
  4  1  1  0  0  0
  4 15  1  0  0  0
  4  6  1  0  0  0
  1 22  1  0  0  0
  1  2  1  0  0  0
 15 16  1  0  0  0
 16 17  2  0  0  0
 16 18  1  0  0  0
 17 19  1  0  0  0
 18 20  2  0  0  0
 19 21  2  0  0  0
 20 21  1  0  0  0
 22 23  1  0  0  0
 36 37  1  0  0  0
 36 23  1  0  0  0
 37 38  1  0  0  0
 37 39  1  0  0  0
 27 28  2  0  0  0
 27 32  1  0  0  0
 27 26  1  0  0  0
 28 29  1  0  0  0
 29 30  2  0  0  0
 30 31  1  0  0  0
 30 33  1  0  0  0
 31 32  2  0  0  0
 13 14  1  0  0  0
 23 26  1  0  0  0
 24 26  2  0  0  0
 25 26  2  0  0  0
  6  8  1  0  0  0
 33 34  1  0  0  0
 33 35  1  0  0  0
  2  3  1  0  0  0
M  END
> <minimizedAffinity>
-9.57258

$$$$
1HPV_478_B_200


 39 41  0  0  0  0  0  0  0  0999 V2000
    8.1842   17.2800    7.6569 C   0  0  0  0  0  0  0  0  0  0  0  0
    8.5432   18.5017    8.2053 O   0  0  0  0  0  0  0  0  0  0  0  0
    9.3043   18.3806    8.7944 H   0  0  0  0  0  0  0  0  0  0  0  0
    9.3599   16.7762    6.6924 C   0  0  0  0  0  0  0  0  0  0  0  0
   11.4877   16.8554    7.9772 C   0  0  0  0  0  0  0  0  0  0  0  0
   10.4300   16.2376    7.4997 N   0  0  0  0  0  0  0  0  0  0  0  0
   11.6104   18.0024    8.1870 O   0  0  0  0  0  0  0  0  0  0  0  0
   10.3577   15.2811    7.7217 H   0  0  0  0  0  0  0  0  0  0  0  0
   12.3308   15.8409    8.4269 O   0  0  0  0  0  0  0  0  0  0  0  0
   11.5651   13.5648    8.7796 C   0  0  0  0  0  0  0  0  0  0  0  0
   13.8310   14.0106    8.0734 C   0  0  0  0  0  0  0  0  0  0  0  0
   12.3975   14.5141    7.9037 C   0  0  0  0  0  0  0  0  0  0  0  0
   13.7502   12.8277    9.0465 C   0  0  0  0  0  0  0  0  0  0  0  0
   12.4628   12.8166    9.6361 O   0  0  0  0  0  0  0  0  0  0  0  0
    9.0212   15.6973    5.5763 C   0  0  0  0  0  0  0  0  0  0  0  0
    9.8196   15.9261    4.3212 C   0  0  0  0  0  0  0  0  0  0  0  0
    9.1803   16.5939    3.2157 C   0  0  0  0  0  0  0  0  0  0  0  0
   11.1317   15.3413    4.1408 C   0  0  0  0  0  0  0  0  0  0  0  0
    9.7924   16.6579    1.9157 C   0  0  0  0  0  0  0  0  0  0  0  0
   11.7533   15.4236    2.8287 C   0  0  0  0  0  0  0  0  0  0  0  0
   11.0819   16.0810    1.7023 C   0  0  0  0  0  0  0  0  0  0  0  0
    7.7691   16.4305    8.9413 C   0  0  0  0  0  0  0  0  0  0  0  0
    7.8090   17.1417   10.2401 N   0  0  0  0  0  0  0  0  0  0  0  0
   10.1479   18.1507   10.9690 O   0  0  0  0  0  0  0  0  0  0  0  0
    9.9803   15.7771   11.0431 O   0  0  0  0  0  0  0  0  0  0  0  0
    9.2767   17.0062   11.2347 S   0  0  0  0  0  0  0  0  0  0  0  0
    8.9954   17.0255   12.9199 C   0  0  0  0  0  0  0  0  0  0  0  0
    8.1336   17.9958   13.5297 C   0  0  0  0  0  0  0  0  0  0  0  0
    7.8493   17.9116   14.9251 C   0  0  0  0  0  0  0  0  0  0  0  0
    8.4203   16.8392   15.6700 C   0  0  0  0  0  0  0  0  0  0  0  0
    9.3098   15.9367   15.0787 C   0  0  0  0  0  0  0  0  0  0  0  0
    9.5953   16.0324   13.6993 C   0  0  0  0  0  0  0  0  0  0  0  0
    8.2131   16.7552   16.9568 N   0  0  0  0  0  0  0  0  0  0  0  0
    7.5915   17.3790   17.3970 H   0  0  0  0  0  0  0  0  0  0  0  0
    8.6785   16.0682   17.4865 H   0  0  0  0  0  0  0  0  0  0  0  0
    6.3949   17.3296   10.8616 C   0  0  0  0  0  0  0  0  0  0  0  0
    5.8243   18.6689   10.4190 C   0  0  0  0  0  0  0  0  0  0  0  0
    4.9354   18.6388    9.1599 C   0  0  0  0  0  0  0  0  0  0  0  0
    5.3906   19.6594   11.5145 C   0  0  0  0  0  0  0  0  0  0  0  0
 10 12  1  0  0  0
 10 14  1  0  0  0
 11 12  1  0  0  0
 11 13  1  0  0  0
  5  6  1  0  0  0
  5  9  1  0  0  0
  5  7  2  0  0  0
 12  9  1  0  0  0
  4  1  1  0  0  0
  4 15  1  0  0  0
  4  6  1  0  0  0
  1 22  1  0  0  0
  1  2  1  0  0  0
 15 16  1  0  0  0
 16 17  2  0  0  0
 16 18  1  0  0  0
 17 19  1  0  0  0
 18 20  2  0  0  0
 19 21  2  0  0  0
 20 21  1  0  0  0
 22 23  1  0  0  0
 36 37  1  0  0  0
 36 23  1  0  0  0
 37 38  1  0  0  0
 37 39  1  0  0  0
 27 28  2  0  0  0
 27 32  1  0  0  0
 27 26  1  0  0  0
 28 29  1  0  0  0
 29 30  2  0  0  0
 30 31  1  0  0  0
 30 33  1  0  0  0
 31 32  2  0  0  0
 13 14  1  0  0  0
 23 26  1  0  0  0
 24 26  2  0  0  0
 25 26  2  0  0  0
  6  8  1  0  0  0
 33 34  1  0  0  0
 33 35  1  0  0  0
  2  3  1  0  0  0
M  END
> <minimizedAffinity>
-9.55177

$$$$
1HPV_478_B_200


 39 41  0  0  0  0  0  0  0  0999 V2000
    8.8333   17.4294    7.7665 C   0  0  0  0  0  0  0  0  0  0  0  0
    9.1487   18.4086    6.8370 O   0  0  0  0  0  0  0  0  0  0  0  0
    9.9779   18.8420    7.0927 H   0  0  0  0  0  0  0  0  0  0  0  0
    9.9320   16.2662    7.6912 C   0  0  0  0  0  0  0  0  0  0  0  0
    9.9014   15.1625    5.4629 C   0  0  0  0  0  0  0  0  0  0  0  0
   10.3186   16.0750    6.3124 N   0  0  0  0  0  0  0  0  0  0  0  0
    8.8907   14.5688    5.4919 O   0  0  0  0  0  0  0  0  0  0  0  0
   10.9822   16.7125    5.9626 H   0  0  0  0  0  0  0  0  0  0  0  0
   10.7822   15.2372    4.3854 O   0  0  0  0  0  0  0  0  0  0  0  0
   11.6594   15.3201    2.1237 C   0  0  0  0  0  0  0  0  0  0  0  0
    9.3861   15.9868    2.5925 C   0  0  0  0  0  0  0  0  0  0  0  0
   10.4568   14.9823    3.0188 C   0  0  0  0  0  0  0  0  0  0  0  0
   10.0313   16.8550    1.5050 C   0  0  0  0  0  0  0  0  0  0  0  0
   11.4251   16.6055    1.4974 O   0  0  0  0  0  0  0  0  0  0  0  0
   11.2670   16.4219    8.5386 C   0  0  0  0  0  0  0  0  0  0  0  0
   12.0836   15.1578    8.5272 C   0  0  0  0  0  0  0  0  0  0  0  0
   11.5040   13.9634    9.0878 C   0  0  0  0  0  0  0  0  0  0  0  0
   13.4776   15.1599    8.1359 C   0  0  0  0  0  0  0  0  0  0  0  0
   12.2869   12.7782    9.3140 C   0  0  0  0  0  0  0  0  0  0  0  0
   14.2603   13.9534    8.3514 C   0  0  0  0  0  0  0  0  0  0  0  0
   13.6679   12.7519    8.9490 C   0  0  0  0  0  0  0  0  0  0  0  0
    8.6350   18.2722    9.1060 C   0  0  0  0  0  0  0  0  0  0  0  0
    8.0719   17.5409   10.2646 N   0  0  0  0  0  0  0  0  0  0  0  0
   10.4438   17.7273   11.4307 O   0  0  0  0  0  0  0  0  0  0  0  0
    9.4101   15.5851   11.5318 O   0  0  0  0  0  0  0  0  0  0  0  0
    9.1820   16.9959   11.5423 S   0  0  0  0  0  0  0  0  0  0  0  0
    8.6264   17.2801   13.1329 C   0  0  0  0  0  0  0  0  0  0  0  0
    9.3907   16.8869   14.2805 C   0  0  0  0  0  0  0  0  0  0  0  0
    8.9350   17.2343   15.5869 C   0  0  0  0  0  0  0  0  0  0  0  0
    7.7324   17.9896   15.7071 C   0  0  0  0  0  0  0  0  0  0  0  0
    6.9621   18.3121   14.5855 C   0  0  0  0  0  0  0  0  0  0  0  0
    7.4136   17.9557   13.2961 C   0  0  0  0  0  0  0  0  0  0  0  0
    7.2657   18.2900   16.8893 N   0  0  0  0  0  0  0  0  0  0  0  0
    7.7888   18.0735   17.6947 H   0  0  0  0  0  0  0  0  0  0  0  0
    6.3907   18.7331   16.9750 H   0  0  0  0  0  0  0  0  0  0  0  0
    6.7683   16.7698    9.9077 C   0  0  0  0  0  0  0  0  0  0  0  0
    5.6637   17.7675    9.5921 C   0  0  0  0  0  0  0  0  0  0  0  0
    5.0962   17.7126    8.1599 C   0  0  0  0  0  0  0  0  0  0  0  0
    4.6412   18.0777   10.7001 C   0  0  0  0  0  0  0  0  0  0  0  0
 10 12  1  0  0  0
 10 14  1  0  0  0
 11 12  1  0  0  0
 11 13  1  0  0  0
  5  6  1  0  0  0
  5  9  1  0  0  0
  5  7  2  0  0  0
 12  9  1  0  0  0
  4  1  1  0  0  0
  4 15  1  0  0  0
  4  6  1  0  0  0
  1 22  1  0  0  0
  1  2  1  0  0  0
 15 16  1  0  0  0
 16 17  2  0  0  0
 16 18  1  0  0  0
 17 19  1  0  0  0
 18 20  2  0  0  0
 19 21  2  0  0  0
 20 21  1  0  0  0
 22 23  1  0  0  0
 36 37  1  0  0  0
 36 23  1  0  0  0
 37 38  1  0  0  0
 37 39  1  0  0  0
 27 28  2  0  0  0
 27 32  1  0  0  0
 27 26  1  0  0  0
 28 29  1  0  0  0
 29 30  2  0  0  0
 30 31  1  0  0  0
 30 33  1  0  0  0
 31 32  2  0  0  0
 13 14  1  0  0  0
 23 26  1  0  0  0
 24 26  2  0  0  0
 25 26  2  0  0  0
  6  8  1  0  0  0
 33 34  1  0  0  0
 33 35  1  0  0  0
  2  3  1  0  0  0
M  END
> <minimizedAffinity>
-9.42276

$$$$
1HPV_478_B_200


 39 41  0  0  0  0  0  0  0  0999 V2000
   10.7732   15.2874    9.9853 C   0  0  0  0  0  0  0  0  0  0  0  0
   11.7450   16.1493    9.5006 O   0  0  0  0  0  0  0  0  0  0  0  0
   11.3420   16.7727    8.8762 H   0  0  0  0  0  0  0  0  0  0  0  0
    9.7309   16.1219   10.8702 C   0  0  0  0  0  0  0  0  0  0  0  0
    9.1170   18.2086    9.6645 C   0  0  0  0  0  0  0  0  0  0  0  0
    8.9320   16.9501    9.9967 N   0  0  0  0  0  0  0  0  0  0  0  0
   10.1237   18.8096    9.6767 O   0  0  0  0  0  0  0  0  0  0  0  0
    8.1447   16.5143    9.5973 H   0  0  0  0  0  0  0  0  0  0  0  0
    7.9304   18.6016    9.0481 O   0  0  0  0  0  0  0  0  0  0  0  0
    6.0798   17.0820    8.6517 C   0  0  0  0  0  0  0  0  0  0  0  0
    5.6828   19.4198    9.1084 C   0  0  0  0  0  0  0  0  0  0  0  0
    6.6117   18.2633    9.4781 C   0  0  0  0  0  0  0  0  0  0  0  0
    4.6932   18.8545    8.0818 C   0  0  0  0  0  0  0  0  0  0  0  0
    5.1644   17.5909    7.6504 O   0  0  0  0  0  0  0  0  0  0  0  0
    8.7297   15.3313   11.8173 C   0  0  0  0  0  0  0  0  0  0  0  0
    9.0016   15.6107   13.2710 C   0  0  0  0  0  0  0  0  0  0  0  0
    7.8969   15.5631   14.1953 C   0  0  0  0  0  0  0  0  0  0  0  0
   10.2904   16.0925   13.7216 C   0  0  0  0  0  0  0  0  0  0  0  0
    8.0258   16.0263   15.5508 C   0  0  0  0  0  0  0  0  0  0  0  0
   10.4194   16.5438   15.0980 C   0  0  0  0  0  0  0  0  0  0  0  0
    9.2815   16.5178   16.0232 C   0  0  0  0  0  0  0  0  0  0  0  0
   10.2927   14.5284    8.6673 C   0  0  0  0  0  0  0  0  0  0  0  0
   10.9621   14.9174    7.4045 N   0  0  0  0  0  0  0  0  0  0  0  0
   11.0584   17.5055    6.8453 O   0  0  0  0  0  0  0  0  0  0  0  0
    8.9091   16.4944    6.6834 O   0  0  0  0  0  0  0  0  0  0  0  0
   10.3117   16.2982    6.4923 S   0  0  0  0  0  0  0  0  0  0  0  0
   10.4485   16.1544    4.7952 C   0  0  0  0  0  0  0  0  0  0  0  0
   11.6904   15.8137    4.1647 C   0  0  0  0  0  0  0  0  0  0  0  0
   11.7340   15.6063    2.7539 C   0  0  0  0  0  0  0  0  0  0  0  0
   10.5220   15.7238    2.0135 C   0  0  0  0  0  0  0  0  0  0  0  0
    9.3302   16.1190    2.6289 C   0  0  0  0  0  0  0  0  0  0  0  0
    9.2965   16.3332    4.0240 C   0  0  0  0  0  0  0  0  0  0  0  0
   10.5335   15.5797    0.7155 N   0  0  0  0  0  0  0  0  0  0  0  0
   11.3601   15.3023    0.2583 H   0  0  0  0  0  0  0  0  0  0  0  0
    9.7155   15.7485    0.1942 H   0  0  0  0  0  0  0  0  0  0  0  0
   11.6703   13.7184    6.7102 C   0  0  0  0  0  0  0  0  0  0  0  0
   13.0774   13.5719    7.2703 C   0  0  0  0  0  0  0  0  0  0  0  0
   13.9605   14.8340    7.2106 C   0  0  0  0  0  0  0  0  0  0  0  0
   13.2629   12.6901    8.5183 C   0  0  0  0  0  0  0  0  0  0  0  0
 10 12  1  0  0  0
 10 14  1  0  0  0
 11 12  1  0  0  0
 11 13  1  0  0  0
  5  6  1  0  0  0
  5  9  1  0  0  0
  5  7  2  0  0  0
 12  9  1  0  0  0
  4  1  1  0  0  0
  4 15  1  0  0  0
  4  6  1  0  0  0
  1 22  1  0  0  0
  1  2  1  0  0  0
 15 16  1  0  0  0
 16 17  2  0  0  0
 16 18  1  0  0  0
 17 19  1  0  0  0
 18 20  2  0  0  0
 19 21  2  0  0  0
 20 21  1  0  0  0
 22 23  1  0  0  0
 36 37  1  0  0  0
 36 23  1  0  0  0
 37 38  1  0  0  0
 37 39  1  0  0  0
 27 28  2  0  0  0
 27 32  1  0  0  0
 27 26  1  0  0  0
 28 29  1  0  0  0
 29 30  2  0  0  0
 30 31  1  0  0  0
 30 33  1  0  0  0
 31 32  2  0  0  0
 13 14  1  0  0  0
 23 26  1  0  0  0
 24 26  2  0  0  0
 25 26  2  0  0  0
  6  8  1  0  0  0
 33 34  1  0  0  0
 33 35  1  0  0  0
  2  3  1  0  0  0
M  END
> <minimizedAffinity>
-9.38620

$$$$
1HPV_478_B_200


 39 41  0  0  0  0  0  0  0  0999 V2000
   10.6289   17.8166    8.1560 C   0  0  0  0  0  0  0  0  0  0  0  0
   11.5758   18.8188    8.0096 O   0  0  0  0  0  0  0  0  0  0  0  0
   12.3232   18.6466    8.6034 H   0  0  0  0  0  0  0  0  0  0  0  0
   11.2468   16.4352    7.6306 C   0  0  0  0  0  0  0  0  0  0  0  0
   10.4491   16.2503    5.2824 C   0  0  0  0  0  0  0  0  0  0  0  0
   11.3668   16.4925    6.1920 N   0  0  0  0  0  0  0  0  0  0  0  0
    9.2849   16.3128    5.4082 O   0  0  0  0  0  0  0  0  0  0  0  0
   12.2532   16.7467    5.8472 H   0  0  0  0  0  0  0  0  0  0  0  0
   11.1438   16.1629    4.0774 O   0  0  0  0  0  0  0  0  0  0  0  0
   11.9724   15.3061    1.9630 C   0  0  0  0  0  0  0  0  0  0  0  0
    9.6428   15.8812    2.2354 C   0  0  0  0  0  0  0  0  0  0  0  0
   10.8316   15.2889    2.9924 C   0  0  0  0  0  0  0  0  0  0  0  0
   10.1642   16.2265    0.8348 C   0  0  0  0  0  0  0  0  0  0  0  0
   11.5776   16.1412    0.8467 O   0  0  0  0  0  0  0  0  0  0  0  0
   12.6510   15.9610    8.2030 C   0  0  0  0  0  0  0  0  0  0  0  0
   13.0219   14.5911    7.7021 C   0  0  0  0  0  0  0  0  0  0  0  0
   14.0585   14.4838    6.7067 C   0  0  0  0  0  0  0  0  0  0  0  0
   12.2509   13.4191    8.0602 C   0  0  0  0  0  0  0  0  0  0  0  0
   14.3215   13.2476    6.0203 C   0  0  0  0  0  0  0  0  0  0  0  0
   12.5325   12.1677    7.3751 C   0  0  0  0  0  0  0  0  0  0  0  0
   13.5707   12.0756    6.3430 C   0  0  0  0  0  0  0  0  0  0  0  0
   10.1836   17.9784    9.6790 C   0  0  0  0  0  0  0  0  0  0  0  0
    8.9030   17.3389   10.0602 N   0  0  0  0  0  0  0  0  0  0  0  0
   10.0908   15.0057   10.4668 O   0  0  0  0  0  0  0  0  0  0  0  0
    7.7424   15.0493   10.8551 O   0  0  0  0  0  0  0  0  0  0  0  0
    8.9570   15.7970   10.9442 S   0  0  0  0  0  0  0  0  0  0  0  0
    9.1850   15.9541   12.6302 C   0  0  0  0  0  0  0  0  0  0  0  0
    8.1453   15.6357   13.5649 C   0  0  0  0  0  0  0  0  0  0  0  0
    8.4133   15.6858   14.9652 C   0  0  0  0  0  0  0  0  0  0  0  0
    9.7280   16.0327   15.3921 C   0  0  0  0  0  0  0  0  0  0  0  0
   10.7156   16.4032   14.4742 C   0  0  0  0  0  0  0  0  0  0  0  0
   10.4404   16.3619   13.0900 C   0  0  0  0  0  0  0  0  0  0  0  0
    9.9968   16.1269   16.6666 N   0  0  0  0  0  0  0  0  0  0  0  0
    9.3184   15.8722   17.3330 H   0  0  0  0  0  0  0  0  0  0  0  0
   10.8780   16.4527   16.9611 H   0  0  0  0  0  0  0  0  0  0  0  0
    7.7414   17.7046    9.0915 C   0  0  0  0  0  0  0  0  0  0  0  0
    6.6906   18.5060    9.8455 C   0  0  0  0  0  0  0  0  0  0  0  0
    6.3010   19.8606    9.2210 C   0  0  0  0  0  0  0  0  0  0  0  0
    5.5431   17.7296   10.5163 C   0  0  0  0  0  0  0  0  0  0  0  0
 10 12  1  0  0  0
 10 14  1  0  0  0
 11 12  1  0  0  0
 11 13  1  0  0  0
  5  6  1  0  0  0
  5  9  1  0  0  0
  5  7  2  0  0  0
 12  9  1  0  0  0
  4  1  1  0  0  0
  4 15  1  0  0  0
  4  6  1  0  0  0
  1 22  1  0  0  0
  1  2  1  0  0  0
 15 16  1  0  0  0
 16 17  2  0  0  0
 16 18  1  0  0  0
 17 19  1  0  0  0
 18 20  2  0  0  0
 19 21  2  0  0  0
 20 21  1  0  0  0
 22 23  1  0  0  0
 36 37  1  0  0  0
 36 23  1  0  0  0
 37 38  1  0  0  0
 37 39  1  0  0  0
 27 28  2  0  0  0
 27 32  1  0  0  0
 27 26  1  0  0  0
 28 29  1  0  0  0
 29 30  2  0  0  0
 30 31  1  0  0  0
 30 33  1  0  0  0
 31 32  2  0  0  0
 13 14  1  0  0  0
 23 26  1  0  0  0
 24 26  2  0  0  0
 25 26  2  0  0  0
  6  8  1  0  0  0
 33 34  1  0  0  0
 33 35  1  0  0  0
  2  3  1  0  0  0
M  END
> <minimizedAffinity>
-9.26260

$$$$
1HPV_478_B_200


 39 41  0  0  0  0  0  0  0  0999 V2000
   10.2404   15.7762    9.7587 C   0  0  0  0  0  0  0  0  0  0  0  0
   11.2914   16.5913    9.3671 O   0  0  0  0  0  0  0  0  0  0  0  0
   11.1078   16.9551    8.4869 H   0  0  0  0  0  0  0  0  0  0  0  0
    8.9312   16.6763    9.9634 C   0  0  0  0  0  0  0  0  0  0  0  0
    7.6293   17.1801   12.0216 C   0  0  0  0  0  0  0  0  0  0  0  0
    8.7436   16.9164   11.3756 N   0  0  0  0  0  0  0  0  0  0  0  0
    6.5352   16.9103   11.6975 O   0  0  0  0  0  0  0  0  0  0  0  0
    9.5581   16.8775   11.9273 H   0  0  0  0  0  0  0  0  0  0  0  0
    8.0325   17.6068   13.2856 O   0  0  0  0  0  0  0  0  0  0  0  0
    7.5724   18.1053   15.6161 C   0  0  0  0  0  0  0  0  0  0  0  0
    8.7826   16.1099   14.9949 C   0  0  0  0  0  0  0  0  0  0  0  0
    7.6469   17.0213   14.5294 C   0  0  0  0  0  0  0  0  0  0  0  0
    9.3110   16.7256   16.2966 C   0  0  0  0  0  0  0  0  0  0  0  0
    8.7656   18.0251   16.4342 O   0  0  0  0  0  0  0  0  0  0  0  0
    8.8509   18.0837    9.2304 C   0  0  0  0  0  0  0  0  0  0  0  0
    7.4660   18.3620    8.7111 C   0  0  0  0  0  0  0  0  0  0  0  0
    6.7599   19.5084    9.2250 C   0  0  0  0  0  0  0  0  0  0  0  0
    6.7735   17.4197    7.8573 C   0  0  0  0  0  0  0  0  0  0  0  0
    5.3644   19.7219    8.9497 C   0  0  0  0  0  0  0  0  0  0  0  0
    5.3668   17.6496    7.5685 C   0  0  0  0  0  0  0  0  0  0  0  0
    4.6499   18.8045    8.1197 C   0  0  0  0  0  0  0  0  0  0  0  0
   10.2668   14.6217    8.6587 C   0  0  0  0  0  0  0  0  0  0  0  0
   11.0968   14.8769    7.4586 N   0  0  0  0  0  0  0  0  0  0  0  0
   10.9937   17.4009    6.6593 O   0  0  0  0  0  0  0  0  0  0  0  0
    9.1058   16.0633    6.0985 O   0  0  0  0  0  0  0  0  0  0  0  0
   10.5244   16.0708    6.2717 S   0  0  0  0  0  0  0  0  0  0  0  0
   11.1035   15.8251    4.6831 C   0  0  0  0  0  0  0  0  0  0  0  0
   12.4606   15.4402    4.4261 C   0  0  0  0  0  0  0  0  0  0  0  0
   12.8726   15.1487    3.0918 C   0  0  0  0  0  0  0  0  0  0  0  0
   11.9035   15.2289    2.0500 C   0  0  0  0  0  0  0  0  0  0  0  0
   10.5999   15.6671    2.3028 C   0  0  0  0  0  0  0  0  0  0  0  0
   10.2017   15.9644    3.6243 C   0  0  0  0  0  0  0  0  0  0  0  0
   12.2560   15.0075    0.8121 N   0  0  0  0  0  0  0  0  0  0  0  0
   13.1681   14.6985    0.6077 H   0  0  0  0  0  0  0  0  0  0  0  0
   11.6096   15.1497    0.0833 H   0  0  0  0  0  0  0  0  0  0  0  0
   11.9559   13.6444    7.0537 C   0  0  0  0  0  0  0  0  0  0  0  0
   13.2830   13.6897    7.7966 C   0  0  0  0  0  0  0  0  0  0  0  0
   13.9571   15.0731    7.8867 C   0  0  0  0  0  0  0  0  0  0  0  0
   13.4395   12.7927    9.0378 C   0  0  0  0  0  0  0  0  0  0  0  0
 10 12  1  0  0  0
 10 14  1  0  0  0
 11 12  1  0  0  0
 11 13  1  0  0  0
  5  6  1  0  0  0
  5  9  1  0  0  0
  5  7  2  0  0  0
 12  9  1  0  0  0
  4  1  1  0  0  0
  4 15  1  0  0  0
  4  6  1  0  0  0
  1 22  1  0  0  0
  1  2  1  0  0  0
 15 16  1  0  0  0
 16 17  2  0  0  0
 16 18  1  0  0  0
 17 19  1  0  0  0
 18 20  2  0  0  0
 19 21  2  0  0  0
 20 21  1  0  0  0
 22 23  1  0  0  0
 36 37  1  0  0  0
 36 23  1  0  0  0
 37 38  1  0  0  0
 37 39  1  0  0  0
 27 28  2  0  0  0
 27 32  1  0  0  0
 27 26  1  0  0  0
 28 29  1  0  0  0
 29 30  2  0  0  0
 30 31  1  0  0  0
 30 33  1  0  0  0
 31 32  2  0  0  0
 13 14  1  0  0  0
 23 26  1  0  0  0
 24 26  2  0  0  0
 25 26  2  0  0  0
  6  8  1  0  0  0
 33 34  1  0  0  0
 33 35  1  0  0  0
  2  3  1  0  0  0
M  END
> <minimizedAffinity>
-9.17187

$$$$
1HPV_478_B_200


 39 41  0  0  0  0  0  0  0  0999 V2000
   10.2529   16.2225    6.1532 C   0  0  0  0  0  0  0  0  0  0  0  0
    9.6889   16.7288    4.9922 O   0  0  0  0  0  0  0  0  0  0  0  0
    8.9045   16.2077    4.7599 H   0  0  0  0  0  0  0  0  0  0  0  0
    9.2399   16.4604    7.3712 C   0  0  0  0  0  0  0  0  0  0  0  0
    9.0558   14.8869    9.2882 C   0  0  0  0  0  0  0  0  0  0  0  0
    9.7140   15.7305    8.5244 N   0  0  0  0  0  0  0  0  0  0  0  0
    8.1069   14.2587    9.0057 O   0  0  0  0  0  0  0  0  0  0  0  0
   10.6544   15.8855    8.7708 H   0  0  0  0  0  0  0  0  0  0  0  0
    9.8676   14.6960   10.4049 O   0  0  0  0  0  0  0  0  0  0  0  0
    8.2218   15.5058   11.9944 C   0  0  0  0  0  0  0  0  0  0  0  0
   10.2267   16.7723   11.5384 C   0  0  0  0  0  0  0  0  0  0  0  0
    9.7146   15.3380   11.6709 C   0  0  0  0  0  0  0  0  0  0  0  0
    9.0094   17.6775   11.7655 C   0  0  0  0  0  0  0  0  0  0  0  0
    7.8410   16.8785   11.7297 O   0  0  0  0  0  0  0  0  0  0  0  0
    8.9492   17.9498    7.8418 C   0  0  0  0  0  0  0  0  0  0  0  0
    7.5026   18.1448    8.2086 C   0  0  0  0  0  0  0  0  0  0  0  0
    6.5155   17.3157    7.5644 C   0  0  0  0  0  0  0  0  0  0  0  0
    7.0749   19.2472    9.0441 C   0  0  0  0  0  0  0  0  0  0  0  0
    5.1075   17.5805    7.6914 C   0  0  0  0  0  0  0  0  0  0  0  0
    5.6495   19.5001    9.1825 C   0  0  0  0  0  0  0  0  0  0  0  0
    4.6534   18.6674    8.4999 C   0  0  0  0  0  0  0  0  0  0  0  0
   10.6696   14.7447    5.7219 C   0  0  0  0  0  0  0  0  0  0  0  0
   12.1124   14.5139    5.4785 N   0  0  0  0  0  0  0  0  0  0  0  0
   14.2103   15.2320    4.0283 O   0  0  0  0  0  0  0  0  0  0  0  0
   12.1043   16.0388    3.2657 O   0  0  0  0  0  0  0  0  0  0  0  0
   12.7825   14.9463    3.8892 S   0  0  0  0  0  0  0  0  0  0  0  0
   12.6746   13.7104    2.7142 C   0  0  0  0  0  0  0  0  0  0  0  0
   11.6949   13.7479    1.6679 C   0  0  0  0  0  0  0  0  0  0  0  0
   11.7070   12.7469    0.6515 C   0  0  0  0  0  0  0  0  0  0  0  0
   12.7190   11.7447    0.6987 C   0  0  0  0  0  0  0  0  0  0  0  0
   13.6292   11.6807    1.7583 C   0  0  0  0  0  0  0  0  0  0  0  0
   13.6047   12.6684    2.7669 C   0  0  0  0  0  0  0  0  0  0  0  0
   12.7350   10.7906   -0.1931 N   0  0  0  0  0  0  0  0  0  0  0  0
   12.1043   10.8125   -0.9488 H   0  0  0  0  0  0  0  0  0  0  0  0
   13.3776   10.0495   -0.1096 H   0  0  0  0  0  0  0  0  0  0  0  0
   12.6829   13.3463    6.3344 C   0  0  0  0  0  0  0  0  0  0  0  0
   12.8361   13.8073    7.7763 C   0  0  0  0  0  0  0  0  0  0  0  0
   12.3558   12.8158    8.8546 C   0  0  0  0  0  0  0  0  0  0  0  0
   14.0894   14.6250    8.1372 C   0  0  0  0  0  0  0  0  0  0  0  0
 10 12  1  0  0  0
 10 14  1  0  0  0
 11 12  1  0  0  0
 11 13  1  0  0  0
  5  6  1  0  0  0
  5  9  1  0  0  0
  5  7  2  0  0  0
 12  9  1  0  0  0
  4  1  1  0  0  0
  4 15  1  0  0  0
  4  6  1  0  0  0
  1 22  1  0  0  0
  1  2  1  0  0  0
 15 16  1  0  0  0
 16 17  2  0  0  0
 16 18  1  0  0  0
 17 19  1  0  0  0
 18 20  2  0  0  0
 19 21  2  0  0  0
 20 21  1  0  0  0
 22 23  1  0  0  0
 36 37  1  0  0  0
 36 23  1  0  0  0
 37 38  1  0  0  0
 37 39  1  0  0  0
 27 28  2  0  0  0
 27 32  1  0  0  0
 27 26  1  0  0  0
 28 29  1  0  0  0
 29 30  2  0  0  0
 30 31  1  0  0  0
 30 33  1  0  0  0
 31 32  2  0  0  0
 13 14  1  0  0  0
 23 26  1  0  0  0
 24 26  2  0  0  0
 25 26  2  0  0  0
  6  8  1  0  0  0
 33 34  1  0  0  0
 33 35  1  0  0  0
  2  3  1  0  0  0
M  END
> <minimizedAffinity>
-8.86544

$$$$
1HPV_478_B_200


 39 41  0  0  0  0  0  0  0  0999 V2000
    8.9940   16.6481   12.1252 C   0  0  0  0  0  0  0  0  0  0  0  0
    9.7183   15.6065   12.6844 O   0  0  0  0  0  0  0  0  0  0  0  0
    9.3277   14.7603   12.4158 H   0  0  0  0  0  0  0  0  0  0  0  0
    9.1737   16.6122   10.5338 C   0  0  0  0  0  0  0  0  0  0  0  0
   11.2659   15.8901    9.3999 C   0  0  0  0  0  0  0  0  0  0  0  0
   10.2431   15.6988   10.2033 N   0  0  0  0  0  0  0  0  0  0  0  0
   11.7461   16.9129    9.0864 O   0  0  0  0  0  0  0  0  0  0  0  0
   10.2002   14.8162   10.6373 H   0  0  0  0  0  0  0  0  0  0  0  0
   11.8221   14.6265    9.2099 O   0  0  0  0  0  0  0  0  0  0  0  0
   12.3895   14.3977    6.8611 C   0  0  0  0  0  0  0  0  0  0  0  0
   13.2263   12.8266    8.4930 C   0  0  0  0  0  0  0  0  0  0  0  0
   12.8854   14.3059    8.3126 C   0  0  0  0  0  0  0  0  0  0  0  0
   12.8883   12.1500    7.1586 C   0  0  0  0  0  0  0  0  0  0  0  0
   12.1398   13.0574    6.3703 O   0  0  0  0  0  0  0  0  0  0  0  0
    7.9240   16.2216    9.6337 C   0  0  0  0  0  0  0  0  0  0  0  0
    8.2352   16.3451    8.1664 C   0  0  0  0  0  0  0  0  0  0  0  0
    8.3711   15.1376    7.3916 C   0  0  0  0  0  0  0  0  0  0  0  0
    8.5712   17.6200    7.5679 C   0  0  0  0  0  0  0  0  0  0  0  0
    8.8778   15.1568    6.0456 C   0  0  0  0  0  0  0  0  0  0  0  0
    9.0672   17.6352    6.2010 C   0  0  0  0  0  0  0  0  0  0  0  0
    9.2287   16.3976    5.4303 C   0  0  0  0  0  0  0  0  0  0  0  0
    7.5529   16.4623   12.7829 C   0  0  0  0  0  0  0  0  0  0  0  0
    7.0882   17.5568   13.6663 N   0  0  0  0  0  0  0  0  0  0  0  0
    6.1382   20.0094   13.3466 O   0  0  0  0  0  0  0  0  0  0  0  0
    4.5066   18.3030   13.6533 O   0  0  0  0  0  0  0  0  0  0  0  0
    5.7814   18.6147   13.0875 S   0  0  0  0  0  0  0  0  0  0  0  0
    5.4856   18.5216   11.4073 C   0  0  0  0  0  0  0  0  0  0  0  0
    4.7455   17.4374   10.8306 C   0  0  0  0  0  0  0  0  0  0  0  0
    4.4370   17.4533    9.4378 C   0  0  0  0  0  0  0  0  0  0  0  0
    4.8605   18.5713    8.6622 C   0  0  0  0  0  0  0  0  0  0  0  0
    5.6364   19.5913    9.2215 C   0  0  0  0  0  0  0  0  0  0  0  0
    5.9474   19.5639   10.5984 C   0  0  0  0  0  0  0  0  0  0  0  0
    4.6297   18.5992    7.3770 N   0  0  0  0  0  0  0  0  0  0  0  0
    4.0863   17.8926    6.9590 H   0  0  0  0  0  0  0  0  0  0  0  0
    4.9992   19.3267    6.8262 H   0  0  0  0  0  0  0  0  0  0  0  0
    8.2007   18.0577   14.6320 C   0  0  0  0  0  0  0  0  0  0  0  0
    8.1464   17.2537   15.9226 C   0  0  0  0  0  0  0  0  0  0  0  0
    6.7651   16.6856   16.3043 C   0  0  0  0  0  0  0  0  0  0  0  0
    9.3498   16.3536   16.2565 C   0  0  0  0  0  0  0  0  0  0  0  0
 10 12  1  0  0  0
 10 14  1  0  0  0
 11 12  1  0  0  0
 11 13  1  0  0  0
  5  6  1  0  0  0
  5  9  1  0  0  0
  5  7  2  0  0  0
 12  9  1  0  0  0
  4  1  1  0  0  0
  4 15  1  0  0  0
  4  6  1  0  0  0
  1 22  1  0  0  0
  1  2  1  0  0  0
 15 16  1  0  0  0
 16 17  2  0  0  0
 16 18  1  0  0  0
 17 19  1  0  0  0
 18 20  2  0  0  0
 19 21  2  0  0  0
 20 21  1  0  0  0
 22 23  1  0  0  0
 36 37  1  0  0  0
 36 23  1  0  0  0
 37 38  1  0  0  0
 37 39  1  0  0  0
 27 28  2  0  0  0
 27 32  1  0  0  0
 27 26  1  0  0  0
 28 29  1  0  0  0
 29 30  2  0  0  0
 30 31  1  0  0  0
 30 33  1  0  0  0
 31 32  2  0  0  0
 13 14  1  0  0  0
 23 26  1  0  0  0
 24 26  2  0  0  0
 25 26  2  0  0  0
  6  8  1  0  0  0
 33 34  1  0  0  0
 33 35  1  0  0  0
  2  3  1  0  0  0
M  END
> <minimizedAffinity>
-8.85510

$$$$
1HPV_478_B_200


 39 41  0  0  0  0  0  0  0  0999 V2000
   10.0398   18.0295    9.6866 C   0  0  0  0  0  0  0  0  0  0  0  0
   10.4642   19.3486    9.6429 O   0  0  0  0  0  0  0  0  0  0  0  0
    9.7353   19.9130    9.3412 H   0  0  0  0  0  0  0  0  0  0  0  0
    8.9214   17.8794   10.8236 C   0  0  0  0  0  0  0  0  0  0  0  0
    6.6174   18.7803   11.0780 C   0  0  0  0  0  0  0  0  0  0  0  0
    7.7358   18.5952   10.4122 N   0  0  0  0  0  0  0  0  0  0  0  0
    6.4657   18.7540   12.2404 O   0  0  0  0  0  0  0  0  0  0  0  0
    7.7700   18.9978    9.5144 H   0  0  0  0  0  0  0  0  0  0  0  0
    5.7115   19.2720   10.1400 O   0  0  0  0  0  0  0  0  0  0  0  0
    5.0958   16.9953    9.5666 C   0  0  0  0  0  0  0  0  0  0  0  0
    5.5463   18.6249    7.8423 C   0  0  0  0  0  0  0  0  0  0  0  0
    4.9334   18.4872    9.2361 C   0  0  0  0  0  0  0  0  0  0  0  0
    6.0453   17.2256    7.4607 C   0  0  0  0  0  0  0  0  0  0  0  0
    6.0172   16.4068    8.6157 O   0  0  0  0  0  0  0  0  0  0  0  0
    8.4654   16.4204   11.2571 C   0  0  0  0  0  0  0  0  0  0  0  0
    8.9404   16.0783   12.6436 C   0  0  0  0  0  0  0  0  0  0  0  0
    7.9605   15.6913   13.6268 C   0  0  0  0  0  0  0  0  0  0  0  0
   10.3123   16.2992   13.0504 C   0  0  0  0  0  0  0  0  0  0  0  0
    8.2978   15.5609   15.0189 C   0  0  0  0  0  0  0  0  0  0  0  0
   10.6514   16.1496   14.4566 C   0  0  0  0  0  0  0  0  0  0  0  0
    9.6404   15.7828   15.4541 C   0  0  0  0  0  0  0  0  0  0  0  0
    9.6905   17.7255    8.1604 C   0  0  0  0  0  0  0  0  0  0  0  0
   10.4112   16.5927    7.5348 N   0  0  0  0  0  0  0  0  0  0  0  0
   11.2059   15.2359    9.6673 O   0  0  0  0  0  0  0  0  0  0  0  0
   12.8127   16.7238    8.7335 O   0  0  0  0  0  0  0  0  0  0  0  0
   11.7374   15.8293    8.4405 S   0  0  0  0  0  0  0  0  0  0  0  0
   12.5175   14.5532    7.6145 C   0  0  0  0  0  0  0  0  0  0  0  0
   11.9499   13.2380    7.5500 C   0  0  0  0  0  0  0  0  0  0  0  0
   12.5861   12.2308    6.7653 C   0  0  0  0  0  0  0  0  0  0  0  0
   13.7662   12.5767    6.0451 C   0  0  0  0  0  0  0  0  0  0  0  0
   14.3461   13.8434    6.1664 C   0  0  0  0  0  0  0  0  0  0  0  0
   13.7170   14.8324    6.9534 C   0  0  0  0  0  0  0  0  0  0  0  0
   14.3961   11.6686    5.3493 N   0  0  0  0  0  0  0  0  0  0  0  0
   14.0089   10.7690    5.2489 H   0  0  0  0  0  0  0  0  0  0  0  0
   15.2582   11.8835    4.9252 H   0  0  0  0  0  0  0  0  0  0  0  0
   10.3930   16.6589    5.9802 C   0  0  0  0  0  0  0  0  0  0  0  0
    9.7314   15.4038    5.4306 C   0  0  0  0  0  0  0  0  0  0  0  0
    8.6684   14.7514    6.3367 C   0  0  0  0  0  0  0  0  0  0  0  0
    9.4390   15.3514    3.9202 C   0  0  0  0  0  0  0  0  0  0  0  0
 10 12  1  0  0  0
 10 14  1  0  0  0
 11 12  1  0  0  0
 11 13  1  0  0  0
  5  6  1  0  0  0
  5  9  1  0  0  0
  5  7  2  0  0  0
 12  9  1  0  0  0
  4  1  1  0  0  0
  4 15  1  0  0  0
  4  6  1  0  0  0
  1 22  1  0  0  0
  1  2  1  0  0  0
 15 16  1  0  0  0
 16 17  2  0  0  0
 16 18  1  0  0  0
 17 19  1  0  0  0
 18 20  2  0  0  0
 19 21  2  0  0  0
 20 21  1  0  0  0
 22 23  1  0  0  0
 36 37  1  0  0  0
 36 23  1  0  0  0
 37 38  1  0  0  0
 37 39  1  0  0  0
 27 28  2  0  0  0
 27 32  1  0  0  0
 27 26  1  0  0  0
 28 29  1  0  0  0
 29 30  2  0  0  0
 30 31  1  0  0  0
 30 33  1  0  0  0
 31 32  2  0  0  0
 13 14  1  0  0  0
 23 26  1  0  0  0
 24 26  2  0  0  0
 25 26  2  0  0  0
  6  8  1  0  0  0
 33 34  1  0  0  0
 33 35  1  0  0  0
  2  3  1  0  0  0
M  END
> <minimizedAffinity>
-8.76179

$$$$
