3JDW_ORN_A_500


 14 13  0  0  0  0  0  0  0  0999 V2000
   41.9563   74.9826   14.4800 N   0  0  0  0  0  0  0  0  0  0  0  0
   42.7720   73.7826   14.1388 C   0  0  0  0  0  0  0  0  0  0  0  0
   42.4602   75.8257   14.2048 H   0  0  0  0  0  0  0  0  0  0  0  0
   41.7843   75.0022   15.4852 H   0  0  0  0  0  0  0  0  0  0  0  0
   42.0710   72.4817   14.5269 C   0  0  0  0  0  0  0  0  0  0  0  0
   40.8817   72.3342   14.1841 O   0  0  0  0  0  0  0  0  0  0  0  0
   42.6871   71.6491   15.2377 O   0  0  0  0  0  0  0  0  0  0  0  0
   43.5816   71.8029   15.4704 H   0  0  0  0  0  0  0  0  0  0  0  0
   44.1968   73.8642   14.7366 C   0  0  0  0  0  0  0  0  0  0  0  0
   44.4115   74.7101   15.9922 C   0  0  0  0  0  0  0  0  0  0  0  0
   44.5559   73.7716   17.2157 C   0  0  0  0  0  0  0  0  0  0  0  0
   43.2423   73.3535   17.8919 N   0  0  0  0  0  0  0  0  0  0  0  0
   42.7776   74.1785   18.2711 H   0  0  0  0  0  0  0  0  0  0  0  0
   43.4425   72.6985   18.6476 H   0  0  0  0  0  0  0  0  0  0  0  0
  1  2  1  0  0  0
  2  9  1  0  0  0
  2  5  1  0  0  0
  9 10  1  0  0  0
 10 11  1  0  0  0
 11 12  1  0  0  0
  5  6  2  0  0  0
  5  7  1  0  0  0
  1  3  1  0  0  0
  1  4  1  0  0  0
 12 13  1  0  0  0
 12 14  1  0  0  0
  7  8  1  0  0  0
M  END
> <minimizedAffinity>
-5.24090

$$$$
3JDW_ORN_A_500


 14 13  0  0  0  0  0  0  0  0999 V2000
   44.7634   74.6774   13.3476 N   0  0  0  0  0  0  0  0  0  0  0  0
   44.1888   73.9485   14.5140 C   0  0  0  0  0  0  0  0  0  0  0  0
   45.7302   74.9327   13.5489 H   0  0  0  0  0  0  0  0  0  0  0  0
   44.2183   75.5216   13.1722 H   0  0  0  0  0  0  0  0  0  0  0  0
   42.7370   73.5364   14.2758 C   0  0  0  0  0  0  0  0  0  0  0  0
   41.8472   74.3834   14.4864 O   0  0  0  0  0  0  0  0  0  0  0  0
   42.4885   72.3475   13.9550 O   0  0  0  0  0  0  0  0  0  0  0  0
   43.1912   71.7457   13.8066 H   0  0  0  0  0  0  0  0  0  0  0  0
   44.3475   74.7478   15.8293 C   0  0  0  0  0  0  0  0  0  0  0  0
   44.8520   76.1890   15.7484 C   0  0  0  0  0  0  0  0  0  0  0  0
   43.6372   77.1466   15.6736 C   0  0  0  0  0  0  0  0  0  0  0  0
   42.9241   77.2117   14.3155 N   0  0  0  0  0  0  0  0  0  0  0  0
   43.5657   77.5768   13.6117 H   0  0  0  0  0  0  0  0  0  0  0  0
   42.1125   77.8254   14.3867 H   0  0  0  0  0  0  0  0  0  0  0  0
  1  2  1  0  0  0
  2  9  1  0  0  0
  2  5  1  0  0  0
  9 10  1  0  0  0
 10 11  1  0  0  0
 11 12  1  0  0  0
  5  6  2  0  0  0
  5  7  1  0  0  0
  1  3  1  0  0  0
  1  4  1  0  0  0
 12 13  1  0  0  0
 12 14  1  0  0  0
  7  8  1  0  0  0
M  END
> <minimizedAffinity>
-5.17285

$$$$
3JDW_ORN_A_500


 14 13  0  0  0  0  0  0  0  0999 V2000
   44.6651   75.0655   13.7808 N   0  0  0  0  0  0  0  0  0  0  0  0
   44.1886   73.8733   14.5380 C   0  0  0  0  0  0  0  0  0  0  0  0
   45.6493   75.2312   13.9916 H   0  0  0  0  0  0  0  0  0  0  0  0
   44.1172   75.8820   14.0521 H   0  0  0  0  0  0  0  0  0  0  0  0
   42.7162   73.5701   14.2654 C   0  0  0  0  0  0  0  0  0  0  0  0
   41.8808   74.4621   14.5108 O   0  0  0  0  0  0  0  0  0  0  0  0
   42.3949   72.4179   13.8818 O   0  0  0  0  0  0  0  0  0  0  0  0
   43.0586   71.7794   13.7093 H   0  0  0  0  0  0  0  0  0  0  0  0
   44.4750   73.9998   16.0533 C   0  0  0  0  0  0  0  0  0  0  0  0
   43.9347   72.9174   16.9886 C   0  0  0  0  0  0  0  0  0  0  0  0
   44.6074   71.5666   16.6409 C   0  0  0  0  0  0  0  0  0  0  0  0
   43.7134   70.5425   15.9272 N   0  0  0  0  0  0  0  0  0  0  0  0
   42.9415   70.2796   16.5398 H   0  0  0  0  0  0  0  0  0  0  0  0
   44.2622   69.7141   15.6971 H   0  0  0  0  0  0  0  0  0  0  0  0
  1  2  1  0  0  0
  2  9  1  0  0  0
  2  5  1  0  0  0
  9 10  1  0  0  0
 10 11  1  0  0  0
 11 12  1  0  0  0
  5  6  2  0  0  0
  5  7  1  0  0  0
  1  3  1  0  0  0
  1  4  1  0  0  0
 12 13  1  0  0  0
 12 14  1  0  0  0
  7  8  1  0  0  0
M  END
> <minimizedAffinity>
-5.05767

$$$$
3JDW_ORN_A_500


 14 13  0  0  0  0  0  0  0  0999 V2000
   43.5393   73.8786   17.2999 N   0  0  0  0  0  0  0  0  0  0  0  0
   44.3629   73.7910   16.0605 C   0  0  0  0  0  0  0  0  0  0  0  0
   44.1481   74.0422   18.1017 H   0  0  0  0  0  0  0  0  0  0  0  0
   43.0302   73.0047   17.4323 H   0  0  0  0  0  0  0  0  0  0  0  0
   43.5077   73.5457   14.8184 C   0  0  0  0  0  0  0  0  0  0  0  0
   42.4291   72.9379   14.9623 O   0  0  0  0  0  0  0  0  0  0  0  0
   43.9539   73.8924   13.6964 O   0  0  0  0  0  0  0  0  0  0  0  0
   44.7705   74.3481   13.6374 H   0  0  0  0  0  0  0  0  0  0  0  0
   45.4937   72.7431   16.1918 C   0  0  0  0  0  0  0  0  0  0  0  0
   45.4047   71.7142   17.3195 C   0  0  0  0  0  0  0  0  0  0  0  0
   45.0245   70.3380   16.7198 C   0  0  0  0  0  0  0  0  0  0  0  0
   43.6771   70.2817   15.9858 N   0  0  0  0  0  0  0  0  0  0  0  0
   42.9229   70.4773   16.6440 H   0  0  0  0  0  0  0  0  0  0  0  0
   43.5466   69.3526   15.5855 H   0  0  0  0  0  0  0  0  0  0  0  0
  1  2  1  0  0  0
  2  9  1  0  0  0
  2  5  1  0  0  0
  9 10  1  0  0  0
 10 11  1  0  0  0
 11 12  1  0  0  0
  5  6  2  0  0  0
  5  7  1  0  0  0
  1  3  1  0  0  0
  1  4  1  0  0  0
 12 13  1  0  0  0
 12 14  1  0  0  0
  7  8  1  0  0  0
M  END
> <minimizedAffinity>
-5.05211

$$$$
3JDW_ORN_A_500


 14 13  0  0  0  0  0  0  0  0999 V2000
   43.3366   71.3924   15.5250 N   0  0  0  0  0  0  0  0  0  0  0  0
   43.4126   72.8543   15.8059 C   0  0  0  0  0  0  0  0  0  0  0  0
   43.5490   70.8712   16.3756 H   0  0  0  0  0  0  0  0  0  0  0  0
   44.0119   71.1499   14.8001 H   0  0  0  0  0  0  0  0  0  0  0  0
   43.1037   73.6944   14.5678 C   0  0  0  0  0  0  0  0  0  0  0  0
   41.9639   74.1885   14.4664 O   0  0  0  0  0  0  0  0  0  0  0  0
   43.9746   73.7915   13.6677 O   0  0  0  0  0  0  0  0  0  0  0  0
   44.8188   73.4033   13.7887 H   0  0  0  0  0  0  0  0  0  0  0  0
   44.7665   73.2501   16.4418 C   0  0  0  0  0  0  0  0  0  0  0  0
   45.9292   72.2610   16.3521 C   0  0  0  0  0  0  0  0  0  0  0  0
   46.9818   72.8069   15.3559 C   0  0  0  0  0  0  0  0  0  0  0  0
   46.7973   74.2700   14.9286 N   0  0  0  0  0  0  0  0  0  0  0  0
   45.9140   74.3693   14.4283 H   0  0  0  0  0  0  0  0  0  0  0  0
   47.5666   74.5456   14.3182 H   0  0  0  0  0  0  0  0  0  0  0  0
  1  2  1  0  0  0
  2  9  1  0  0  0
  2  5  1  0  0  0
  9 10  1  0  0  0
 10 11  1  0  0  0
 11 12  1  0  0  0
  5  6  2  0  0  0
  5  7  1  0  0  0
  1  3  1  0  0  0
  1  4  1  0  0  0
 12 13  1  0  0  0
 12 14  1  0  0  0
  7  8  1  0  0  0
M  END
> <minimizedAffinity>
-5.04866

$$$$
3JDW_ORN_A_500


 14 13  0  0  0  0  0  0  0  0999 V2000
   46.8224   74.4859   14.8986 N   0  0  0  0  0  0  0  0  0  0  0  0
   45.4974   75.1312   15.1216 C   0  0  0  0  0  0  0  0  0  0  0  0
   46.6880   73.4965   14.6903 H   0  0  0  0  0  0  0  0  0  0  0  0
   47.3931   74.5820   15.7386 H   0  0  0  0  0  0  0  0  0  0  0  0
   45.6292   76.6198   15.4394 C   0  0  0  0  0  0  0  0  0  0  0  0
   44.8553   77.1072   16.2862 O   0  0  0  0  0  0  0  0  0  0  0  0
   46.4515   77.3092   14.7863 O   0  0  0  0  0  0  0  0  0  0  0  0
   47.0138   76.8982   14.1594 H   0  0  0  0  0  0  0  0  0  0  0  0
   44.6675   74.3889   16.1960 C   0  0  0  0  0  0  0  0  0  0  0  0
   43.7743   73.2296   15.7528 C   0  0  0  0  0  0  0  0  0  0  0  0
   42.9698   73.6606   14.5017 C   0  0  0  0  0  0  0  0  0  0  0  0
   42.1838   72.5443   13.7992 N   0  0  0  0  0  0  0  0  0  0  0  0
   42.8336   71.8442   13.4416 H   0  0  0  0  0  0  0  0  0  0  0  0
   41.6501   72.9396   13.0251 H   0  0  0  0  0  0  0  0  0  0  0  0
  1  2  1  0  0  0
  2  9  1  0  0  0
  2  5  1  0  0  0
  9 10  1  0  0  0
 10 11  1  0  0  0
 11 12  1  0  0  0
  5  6  2  0  0  0
  5  7  1  0  0  0
  1  3  1  0  0  0
  1  4  1  0  0  0
 12 13  1  0  0  0
 12 14  1  0  0  0
  7  8  1  0  0  0
M  END
> <minimizedAffinity>
-5.00505

$$$$
3JDW_ORN_A_500


 14 13  0  0  0  0  0  0  0  0999 V2000
   43.4306   73.5055   17.6123 N   0  0  0  0  0  0  0  0  0  0  0  0
   43.9784   73.5006   16.2260 C   0  0  0  0  0  0  0  0  0  0  0  0
   44.0553   74.0320   18.2229 H   0  0  0  0  0  0  0  0  0  0  0  0
   43.3531   72.5463   17.9506 H   0  0  0  0  0  0  0  0  0  0  0  0
   43.0861   72.7254   15.2581 C   0  0  0  0  0  0  0  0  0  0  0  0
   42.4763   71.7301   15.6952 O   0  0  0  0  0  0  0  0  0  0  0  0
   43.0599   73.0682   14.0498 O   0  0  0  0  0  0  0  0  0  0  0  0
   43.5347   73.8250   13.7672 H   0  0  0  0  0  0  0  0  0  0  0  0
   45.4403   72.9954   16.1850 C   0  0  0  0  0  0  0  0  0  0  0  0
   46.4167   73.6708   15.2213 C   0  0  0  0  0  0  0  0  0  0  0  0
   45.8694   75.0697   14.8447 C   0  0  0  0  0  0  0  0  0  0  0  0
   45.2868   75.1972   13.4299 N   0  0  0  0  0  0  0  0  0  0  0  0
   46.0221   75.0303   12.7430 H   0  0  0  0  0  0  0  0  0  0  0  0
   44.9081   76.1355   13.3014 H   0  0  0  0  0  0  0  0  0  0  0  0
  1  2  1  0  0  0
  2  9  1  0  0  0
  2  5  1  0  0  0
  9 10  1  0  0  0
 10 11  1  0  0  0
 11 12  1  0  0  0
  5  6  2  0  0  0
  5  7  1  0  0  0
  1  3  1  0  0  0
  1  4  1  0  0  0
 12 13  1  0  0  0
 12 14  1  0  0  0
  7  8  1  0  0  0
M  END
> <minimizedAffinity>
-4.96100

$$$$
3JDW_ORN_A_500


 14 13  0  0  0  0  0  0  0  0999 V2000
   42.0305   74.9192   14.2586 N   0  0  0  0  0  0  0  0  0  0  0  0
   42.8540   73.6909   14.4459 C   0  0  0  0  0  0  0  0  0  0  0  0
   42.6300   75.7424   14.3156 H   0  0  0  0  0  0  0  0  0  0  0  0
   41.3187   74.9658   14.9876 H   0  0  0  0  0  0  0  0  0  0  0  0
   42.0125   72.4179   14.3713 C   0  0  0  0  0  0  0  0  0  0  0  0
   41.9396   71.7051   15.3912 O   0  0  0  0  0  0  0  0  0  0  0  0
   41.4933   72.0972   13.2733 O   0  0  0  0  0  0  0  0  0  0  0  0
   41.5744   72.6658   12.5329 H   0  0  0  0  0  0  0  0  0  0  0  0
   43.6887   73.7487   15.7475 C   0  0  0  0  0  0  0  0  0  0  0  0
   45.2109   73.6507   15.6405 C   0  0  0  0  0  0  0  0  0  0  0  0
   45.6709   74.3354   14.3298 C   0  0  0  0  0  0  0  0  0  0  0  0
   45.7711   75.8667   14.3791 N   0  0  0  0  0  0  0  0  0  0  0  0
   44.8466   76.2627   14.5493 H   0  0  0  0  0  0  0  0  0  0  0  0
   46.1307   76.2127   13.4895 H   0  0  0  0  0  0  0  0  0  0  0  0
  1  2  1  0  0  0
  2  9  1  0  0  0
  2  5  1  0  0  0
  9 10  1  0  0  0
 10 11  1  0  0  0
 11 12  1  0  0  0
  5  6  2  0  0  0
  5  7  1  0  0  0
  1  3  1  0  0  0
  1  4  1  0  0  0
 12 13  1  0  0  0
 12 14  1  0  0  0
  7  8  1  0  0  0
M  END
> <minimizedAffinity>
-4.95130

$$$$
3JDW_ORN_A_500


 14 13  0  0  0  0  0  0  0  0999 V2000
   45.2502   75.0920   13.3148 N   0  0  0  0  0  0  0  0  0  0  0  0
   44.6065   74.8426   14.6359 C   0  0  0  0  0  0  0  0  0  0  0  0
   45.7163   74.2419   12.9978 H   0  0  0  0  0  0  0  0  0  0  0  0
   45.9359   75.8416   13.4068 H   0  0  0  0  0  0  0  0  0  0  0  0
   43.8884   76.0815   15.1685 C   0  0  0  0  0  0  0  0  0  0  0  0
   43.8899   76.2736   16.4000 O   0  0  0  0  0  0  0  0  0  0  0  0
   43.2618   76.8132   14.3622 O   0  0  0  0  0  0  0  0  0  0  0  0
   43.2901   76.6297   13.4438 H   0  0  0  0  0  0  0  0  0  0  0  0
   45.6095   74.2754   15.6686 C   0  0  0  0  0  0  0  0  0  0  0  0
   45.4148   72.8403   16.1595 C   0  0  0  0  0  0  0  0  0  0  0  0
   43.9410   72.6505   16.5955 C   0  0  0  0  0  0  0  0  0  0  0  0
   43.4765   73.5250   17.7689 N   0  0  0  0  0  0  0  0  0  0  0  0
   44.0105   73.2848   18.6041 H   0  0  0  0  0  0  0  0  0  0  0  0
   42.4843   73.3633   17.9416 H   0  0  0  0  0  0  0  0  0  0  0  0
  1  2  1  0  0  0
  2  9  1  0  0  0
  2  5  1  0  0  0
  9 10  1  0  0  0
 10 11  1  0  0  0
 11 12  1  0  0  0
  5  6  2  0  0  0
  5  7  1  0  0  0
  1  3  1  0  0  0
  1  4  1  0  0  0
 12 13  1  0  0  0
 12 14  1  0  0  0
  7  8  1  0  0  0
M  END
> <minimizedAffinity>
-4.83100

$$$$
3JDW_ORN_A_500


 14 13  0  0  0  0  0  0  0  0999 V2000
   45.1160   75.2685   13.4307 N   0  0  0  0  0  0  0  0  0  0  0  0
   44.8878   74.0481   14.2556 C   0  0  0  0  0  0  0  0  0  0  0  0
   46.1050   75.3363   13.1904 H   0  0  0  0  0  0  0  0  0  0  0  0
   44.8375   76.0942   13.9608 H   0  0  0  0  0  0  0  0  0  0  0  0
   43.4206   73.8874   14.6504 C   0  0  0  0  0  0  0  0  0  0  0  0
   43.1506   73.7747   15.8620 O   0  0  0  0  0  0  0  0  0  0  0  0
   42.5549   73.7968   13.7447 O   0  0  0  0  0  0  0  0  0  0  0  0
   42.8053   73.8885   12.8464 H   0  0  0  0  0  0  0  0  0  0  0  0
   45.8199   74.0032   15.4899 C   0  0  0  0  0  0  0  0  0  0  0  0
   46.7492   72.8003   15.6563 C   0  0  0  0  0  0  0  0  0  0  0  0
   46.0019   71.6873   16.4317 C   0  0  0  0  0  0  0  0  0  0  0  0
   45.0836   72.1676   17.5646 N   0  0  0  0  0  0  0  0  0  0  0  0
   45.6419   72.6311   18.2814 H   0  0  0  0  0  0  0  0  0  0  0  0
   44.6014   71.3673   17.9738 H   0  0  0  0  0  0  0  0  0  0  0  0
  1  2  1  0  0  0
  2  9  1  0  0  0
  2  5  1  0  0  0
  9 10  1  0  0  0
 10 11  1  0  0  0
 11 12  1  0  0  0
  5  6  2  0  0  0
  5  7  1  0  0  0
  1  3  1  0  0  0
  1  4  1  0  0  0
 12 13  1  0  0  0
 12 14  1  0  0  0
  7  8  1  0  0  0
M  END
> <minimizedAffinity>
-4.70894

$$$$
