5D2R_56W_A_523


 33 32  0  0  0  0  0  0  0  0999 V2000
    0.8363   24.5321   -6.8572 C   0  0  0  0  0  0  0  0  0  0  0  0
   -0.8369   24.0927   -4.6942 O   0  0  0  0  0  0  0  0  0  0  0  0
    0.5742   23.6727   -5.2712 P   0  0  0  0  0  0  0  0  0  0  0  0
    1.7347   23.8731   -4.3892 O   0  0  0  0  0  0  0  0  0  0  0  0
    2.5406   23.5827   -4.8442 H   0  0  0  0  0  0  0  0  0  0  0  0
    0.6199   21.9055   -5.6650 C   0  0  0  0  0  0  0  0  0  0  0  0
    1.4360   21.1086   -4.6604 C   0  0  0  0  0  0  0  0  0  0  0  0
    1.0149   19.6462   -4.7870 C   0  0  0  0  0  0  0  0  0  0  0  0
   -1.2953   18.9650   -5.1778 C   0  0  0  0  0  0  0  0  0  0  0  0
   -0.1530   19.4886   -5.6443 N   0  0  0  0  0  0  0  0  0  0  0  0
   -1.3913   18.5221   -4.0394 O   0  0  0  0  0  0  0  0  0  0  0  0
   -2.4616   18.9829   -6.1278 C   0  0  0  0  0  0  0  0  0  0  0  0
   -0.1019   19.7725   -6.5856 H   0  0  0  0  0  0  0  0  0  0  0  0
    2.1983   18.8219   -5.2153 C   0  0  0  0  0  0  0  0  0  0  0  0
    2.6090   18.8112   -6.3686 O   0  0  0  0  0  0  0  0  0  0  0  0
    2.8335   18.0965   -4.3108 O   0  0  0  0  0  0  0  0  0  0  0  0
    2.5361   18.0902   -3.4223 H   0  0  0  0  0  0  0  0  0  0  0  0
   -0.3131   25.3550   -7.4903 C   0  0  0  0  0  0  0  0  0  0  0  0
   -1.6219   24.6138   -7.4924 C   0  0  0  0  0  0  0  0  0  0  0  0
   -1.8567   23.5946   -8.1206 O   0  0  0  0  0  0  0  0  0  0  0  0
   -2.5668   25.0985   -6.7161 O   0  0  0  0  0  0  0  0  0  0  0  0
   -2.4127   25.8800   -6.2226 H   0  0  0  0  0  0  0  0  0  0  0  0
   -0.4402   26.7514   -6.9150 C   0  0  0  0  0  0  0  0  0  0  0  0
    0.6396   27.7042   -7.4219 C   0  0  0  0  0  0  0  0  0  0  0  0
    0.2146   28.4075   -8.7109 C   0  0  0  0  0  0  0  0  0  0  0  0
   -0.0134   29.9289   -8.5768 C   0  0  0  0  0  0  0  0  0  0  0  0
   -0.5254   30.5469   -9.8161 N   0  0  0  0  0  0  0  0  0  0  0  0
   -1.4390   30.1526  -10.0403 H   0  0  0  0  0  0  0  0  0  0  0  0
    0.1224   30.3607  -10.5816 H   0  0  0  0  0  0  0  0  0  0  0  0
   -2.2050   29.8722   -7.6493 O   0  0  0  0  0  0  0  0  0  0  0  0
   -1.0237   30.2094   -7.5232 C   0  0  0  0  0  0  0  0  0  0  0  0
   -0.6183   30.8779   -6.4515 O   0  0  0  0  0  0  0  0  0  0  0  0
    0.2808   31.1281   -6.3677 H   0  0  0  0  0  0  0  0  0  0  0  0
 25 24  1  0  0  0
 25 26  1  0  0  0
 24 23  1  0  0  0
 23 18  1  0  0  0
 18 19  1  0  0  0
 18  1  1  0  0  0
 19 20  2  0  0  0
 19 21  1  0  0  0
  1  3  1  0  0  0
  6  7  1  0  0  0
  6  3  1  0  0  0
  7  8  1  0  0  0
  2  3  2  0  0  0
  8 14  1  0  0  0
  8 10  1  0  0  0
  9 10  1  0  0  0
  9 11  2  0  0  0
  9 12  1  0  0  0
 30 31  2  0  0  0
 31 32  1  0  0  0
 31 26  1  0  0  0
 26 27  1  0  0  0
  3  4  1  0  0  0
 14 15  2  0  0  0
 14 16  1  0  0  0
 32 33  1  0  0  0
 27 28  1  0  0  0
 27 29  1  0  0  0
 21 22  1  0  0  0
  4  5  1  0  0  0
 16 17  1  0  0  0
 10 13  1  0  0  0
M  END
> <minimizedAffinity>
-8.66790

$$$$
5D2R_56W_A_523


 33 32  0  0  0  0  0  0  0  0999 V2000
    0.3436   24.0542   -6.9589 C   0  0  0  0  0  0  0  0  0  0  0  0
   -0.6237   23.6144   -4.4011 O   0  0  0  0  0  0  0  0  0  0  0  0
    0.6895   23.4640   -5.2694 P   0  0  0  0  0  0  0  0  0  0  0  0
    1.9043   24.1089   -4.7467 O   0  0  0  0  0  0  0  0  0  0  0  0
    2.6418   23.9519   -5.3570 H   0  0  0  0  0  0  0  0  0  0  0  0
    1.1575   21.7239   -5.4509 C   0  0  0  0  0  0  0  0  0  0  0  0
   -0.0403   20.7909   -5.3791 C   0  0  0  0  0  0  0  0  0  0  0  0
   -0.3080   20.2811   -6.7935 C   0  0  0  0  0  0  0  0  0  0  0  0
   -0.0546   18.1934   -8.0308 C   0  0  0  0  0  0  0  0  0  0  0  0
   -0.2554   18.8265   -6.8666 N   0  0  0  0  0  0  0  0  0  0  0  0
    0.0145   18.7953   -9.0957 O   0  0  0  0  0  0  0  0  0  0  0  0
    0.1118   16.7007   -7.9459 C   0  0  0  0  0  0  0  0  0  0  0  0
   -0.3698   18.2981   -6.0438 H   0  0  0  0  0  0  0  0  0  0  0  0
   -1.5973   20.8684   -7.2994 C   0  0  0  0  0  0  0  0  0  0  0  0
   -1.6360   21.6729   -8.2215 O   0  0  0  0  0  0  0  0  0  0  0  0
   -2.7349   20.4883   -6.7434 O   0  0  0  0  0  0  0  0  0  0  0  0
   -2.7283   19.8735   -6.0363 H   0  0  0  0  0  0  0  0  0  0  0  0
   -0.5064   25.3312   -7.1735 C   0  0  0  0  0  0  0  0  0  0  0  0
   -1.8455   25.2556   -6.4928 C   0  0  0  0  0  0  0  0  0  0  0  0
   -2.3895   26.1716   -5.8981 O   0  0  0  0  0  0  0  0  0  0  0  0
   -2.4849   24.1103   -6.5914 O   0  0  0  0  0  0  0  0  0  0  0  0
   -2.0899   23.3905   -7.0428 H   0  0  0  0  0  0  0  0  0  0  0  0
    0.2376   26.6104   -6.8459 C   0  0  0  0  0  0  0  0  0  0  0  0
    0.3562   27.5524   -8.0414 C   0  0  0  0  0  0  0  0  0  0  0  0
    0.1968   29.0153   -7.6277 C   0  0  0  0  0  0  0  0  0  0  0  0
   -1.1610   29.6513   -7.9971 C   0  0  0  0  0  0  0  0  0  0  0  0
   -2.2907   28.7080   -7.8803 N   0  0  0  0  0  0  0  0  0  0  0  0
   -2.3846   28.4085   -6.9099 H   0  0  0  0  0  0  0  0  0  0  0  0
   -2.1175   27.8952   -8.4718 H   0  0  0  0  0  0  0  0  0  0  0  0
   -2.5681   31.3431   -7.0890 O   0  0  0  0  0  0  0  0  0  0  0  0
   -1.4674   30.7833   -7.0837 C   0  0  0  0  0  0  0  0  0  0  0  0
   -0.4951   31.2030   -6.2846 O   0  0  0  0  0  0  0  0  0  0  0  0
    0.3356   30.7696   -6.2899 H   0  0  0  0  0  0  0  0  0  0  0  0
 25 24  1  0  0  0
 25 26  1  0  0  0
 24 23  1  0  0  0
 23 18  1  0  0  0
 18 19  1  0  0  0
 18  1  1  0  0  0
 19 20  2  0  0  0
 19 21  1  0  0  0
  1  3  1  0  0  0
  6  7  1  0  0  0
  6  3  1  0  0  0
  7  8  1  0  0  0
  2  3  2  0  0  0
  8 14  1  0  0  0
  8 10  1  0  0  0
  9 10  1  0  0  0
  9 11  2  0  0  0
  9 12  1  0  0  0
 30 31  2  0  0  0
 31 32  1  0  0  0
 31 26  1  0  0  0
 26 27  1  0  0  0
  3  4  1  0  0  0
 14 15  2  0  0  0
 14 16  1  0  0  0
 32 33  1  0  0  0
 27 28  1  0  0  0
 27 29  1  0  0  0
 21 22  1  0  0  0
  4  5  1  0  0  0
 16 17  1  0  0  0
 10 13  1  0  0  0
M  END
> <minimizedAffinity>
-8.55896

$$$$
5D2R_56W_A_523


 33 32  0  0  0  0  0  0  0  0999 V2000
    0.3459   24.0554   -6.9473 C   0  0  0  0  0  0  0  0  0  0  0  0
   -0.6584   23.8784   -4.3721 O   0  0  0  0  0  0  0  0  0  0  0  0
    0.6295   23.5356   -5.2234 P   0  0  0  0  0  0  0  0  0  0  0  0
    1.9074   24.0773   -4.7352 O   0  0  0  0  0  0  0  0  0  0  0  0
    2.6227   23.8053   -5.3313 H   0  0  0  0  0  0  0  0  0  0  0  0
    0.9080   21.7476   -5.2966 C   0  0  0  0  0  0  0  0  0  0  0  0
   -0.1659   21.0258   -6.0941 C   0  0  0  0  0  0  0  0  0  0  0  0
    0.0438   19.5268   -5.8909 C   0  0  0  0  0  0  0  0  0  0  0  0
    0.3220   17.8176   -7.6098 C   0  0  0  0  0  0  0  0  0  0  0  0
    0.7710   18.9239   -7.0006 N   0  0  0  0  0  0  0  0  0  0  0  0
   -0.6707   17.2159   -7.2179 O   0  0  0  0  0  0  0  0  0  0  0  0
    1.0940   17.3776   -8.8237 C   0  0  0  0  0  0  0  0  0  0  0  0
    1.6094   19.3376   -7.3091 H   0  0  0  0  0  0  0  0  0  0  0  0
    0.6795   19.2899   -4.5481 C   0  0  0  0  0  0  0  0  0  0  0  0
    0.0233   19.1821   -3.5201 O   0  0  0  0  0  0  0  0  0  0  0  0
    1.9942   19.1727   -4.4746 O   0  0  0  0  0  0  0  0  0  0  0  0
    2.5156   19.2517   -5.2490 H   0  0  0  0  0  0  0  0  0  0  0  0
   -0.4822   25.3302   -7.2447 C   0  0  0  0  0  0  0  0  0  0  0  0
   -1.8525   25.2870   -6.6261 C   0  0  0  0  0  0  0  0  0  0  0  0
   -2.4451   26.2423   -6.1520 O   0  0  0  0  0  0  0  0  0  0  0  0
   -2.4621   24.1214   -6.6422 O   0  0  0  0  0  0  0  0  0  0  0  0
   -2.0296   23.3714   -7.0006 H   0  0  0  0  0  0  0  0  0  0  0  0
    0.2563   26.6147   -6.9254 C   0  0  0  0  0  0  0  0  0  0  0  0
    0.3256   27.5719   -8.1127 C   0  0  0  0  0  0  0  0  0  0  0  0
    0.1741   29.0287   -7.6752 C   0  0  0  0  0  0  0  0  0  0  0  0
   -1.1876   29.6720   -8.0165 C   0  0  0  0  0  0  0  0  0  0  0  0
   -2.3175   28.7296   -7.8949 N   0  0  0  0  0  0  0  0  0  0  0  0
   -2.3978   28.4180   -6.9269 H   0  0  0  0  0  0  0  0  0  0  0  0
   -2.1548   27.9239   -8.4990 H   0  0  0  0  0  0  0  0  0  0  0  0
   -2.5719   31.3661   -7.0781 O   0  0  0  0  0  0  0  0  0  0  0  0
   -1.4780   30.7930   -7.0845 C   0  0  0  0  0  0  0  0  0  0  0  0
   -0.4987   31.1883   -6.2815 O   0  0  0  0  0  0  0  0  0  0  0  0
    0.3267   30.7452   -6.2960 H   0  0  0  0  0  0  0  0  0  0  0  0
 25 24  1  0  0  0
 25 26  1  0  0  0
 24 23  1  0  0  0
 23 18  1  0  0  0
 18 19  1  0  0  0
 18  1  1  0  0  0
 19 20  2  0  0  0
 19 21  1  0  0  0
  1  3  1  0  0  0
  6  7  1  0  0  0
  6  3  1  0  0  0
  7  8  1  0  0  0
  2  3  2  0  0  0
  8 14  1  0  0  0
  8 10  1  0  0  0
  9 10  1  0  0  0
  9 11  2  0  0  0
  9 12  1  0  0  0
 30 31  2  0  0  0
 31 32  1  0  0  0
 31 26  1  0  0  0
 26 27  1  0  0  0
  3  4  1  0  0  0
 14 15  2  0  0  0
 14 16  1  0  0  0
 32 33  1  0  0  0
 27 28  1  0  0  0
 27 29  1  0  0  0
 21 22  1  0  0  0
  4  5  1  0  0  0
 16 17  1  0  0  0
 10 13  1  0  0  0
M  END
> <minimizedAffinity>
-8.45796

$$$$
5D2R_56W_A_523


 33 32  0  0  0  0  0  0  0  0999 V2000
   -0.6976   22.6089   -7.1152 C   0  0  0  0  0  0  0  0  0  0  0  0
   -1.8735   21.2965   -9.2520 O   0  0  0  0  0  0  0  0  0  0  0  0
   -1.8822   21.3400   -7.6712 P   0  0  0  0  0  0  0  0  0  0  0  0
   -3.1869   21.5471   -7.0234 O   0  0  0  0  0  0  0  0  0  0  0  0
   -3.0719   21.5561   -6.0603 H   0  0  0  0  0  0  0  0  0  0  0  0
   -1.2850   19.7802   -6.9709 C   0  0  0  0  0  0  0  0  0  0  0  0
    0.2041   19.8132   -6.6680 C   0  0  0  0  0  0  0  0  0  0  0  0
    0.3660   19.6760   -5.1557 C   0  0  0  0  0  0  0  0  0  0  0  0
   -0.0189   17.8831   -3.5460 C   0  0  0  0  0  0  0  0  0  0  0  0
    0.4400   18.2808   -4.7410 N   0  0  0  0  0  0  0  0  0  0  0  0
   -0.4470   18.6763   -2.7161 O   0  0  0  0  0  0  0  0  0  0  0  0
   -0.0050   16.3993   -3.2984 C   0  0  0  0  0  0  0  0  0  0  0  0
    0.8351   17.6168   -5.3510 H   0  0  0  0  0  0  0  0  0  0  0  0
    1.5350   20.5072   -4.7020 C   0  0  0  0  0  0  0  0  0  0  0  0
    2.5507   20.6349   -5.3736 O   0  0  0  0  0  0  0  0  0  0  0  0
    1.4580   21.1413   -3.5447 O   0  0  0  0  0  0  0  0  0  0  0  0
    0.6898   21.0575   -3.0147 H   0  0  0  0  0  0  0  0  0  0  0  0
   -1.1145   24.1005   -7.0945 C   0  0  0  0  0  0  0  0  0  0  0  0
   -1.8308   24.4832   -5.8286 C   0  0  0  0  0  0  0  0  0  0  0  0
   -3.0401   24.5865   -5.7035 O   0  0  0  0  0  0  0  0  0  0  0  0
   -1.0760   24.6809   -4.7695 O   0  0  0  0  0  0  0  0  0  0  0  0
   -0.1444   24.6078   -4.8380 H   0  0  0  0  0  0  0  0  0  0  0  0
    0.0223   25.0469   -7.4247 C   0  0  0  0  0  0  0  0  0  0  0  0
   -0.4612   26.4223   -7.8778 C   0  0  0  0  0  0  0  0  0  0  0  0
    0.4007   27.5445   -7.2996 C   0  0  0  0  0  0  0  0  0  0  0  0
    0.4626   28.8258   -8.1593 C   0  0  0  0  0  0  0  0  0  0  0  0
    0.3687   28.5539   -9.6074 N   0  0  0  0  0  0  0  0  0  0  0  0
   -0.5349   28.1289   -9.8156 H   0  0  0  0  0  0  0  0  0  0  0  0
    1.1158   27.9165   -9.8829 H   0  0  0  0  0  0  0  0  0  0  0  0
   -1.1140   30.5420   -8.6445 O   0  0  0  0  0  0  0  0  0  0  0  0
   -0.6741   29.7250   -7.8296 C   0  0  0  0  0  0  0  0  0  0  0  0
   -1.1772   29.6488   -6.6044 O   0  0  0  0  0  0  0  0  0  0  0  0
   -0.8346   29.0246   -5.9953 H   0  0  0  0  0  0  0  0  0  0  0  0
 25 24  1  0  0  0
 25 26  1  0  0  0
 24 23  1  0  0  0
 23 18  1  0  0  0
 18 19  1  0  0  0
 18  1  1  0  0  0
 19 20  2  0  0  0
 19 21  1  0  0  0
  1  3  1  0  0  0
  6  7  1  0  0  0
  6  3  1  0  0  0
  7  8  1  0  0  0
  2  3  2  0  0  0
  8 14  1  0  0  0
  8 10  1  0  0  0
  9 10  1  0  0  0
  9 11  2  0  0  0
  9 12  1  0  0  0
 30 31  2  0  0  0
 31 32  1  0  0  0
 31 26  1  0  0  0
 26 27  1  0  0  0
  3  4  1  0  0  0
 14 15  2  0  0  0
 14 16  1  0  0  0
 32 33  1  0  0  0
 27 28  1  0  0  0
 27 29  1  0  0  0
 21 22  1  0  0  0
  4  5  1  0  0  0
 16 17  1  0  0  0
 10 13  1  0  0  0
M  END
> <minimizedAffinity>
-7.93207

$$$$
5D2R_56W_A_523


 33 32  0  0  0  0  0  0  0  0999 V2000
   -0.7453   22.7501   -7.1020 C   0  0  0  0  0  0  0  0  0  0  0  0
   -1.9173   21.5334   -9.2969 O   0  0  0  0  0  0  0  0  0  0  0  0
   -1.8213   21.4162   -7.7228 P   0  0  0  0  0  0  0  0  0  0  0  0
   -3.0928   21.4057   -6.9825 O   0  0  0  0  0  0  0  0  0  0  0  0
   -2.9130   21.3308   -6.0322 H   0  0  0  0  0  0  0  0  0  0  0  0
   -1.0118   19.8727   -7.2302 C   0  0  0  0  0  0  0  0  0  0  0  0
   -0.8107   19.7777   -5.7267 C   0  0  0  0  0  0  0  0  0  0  0  0
    0.6753   19.5278   -5.4791 C   0  0  0  0  0  0  0  0  0  0  0  0
    2.3709   18.2695   -6.7020 C   0  0  0  0  0  0  0  0  0  0  0  0
    1.3784   19.1704   -6.7046 N   0  0  0  0  0  0  0  0  0  0  0  0
    2.7884   17.7639   -5.6671 O   0  0  0  0  0  0  0  0  0  0  0  0
    2.9199   17.8940   -8.0513 C   0  0  0  0  0  0  0  0  0  0  0  0
    1.1190   19.5995   -7.5519 H   0  0  0  0  0  0  0  0  0  0  0  0
    1.2672   20.7107   -4.7624 C   0  0  0  0  0  0  0  0  0  0  0  0
    1.9105   21.5760   -5.3423 O   0  0  0  0  0  0  0  0  0  0  0  0
    1.0699   20.8344   -3.4611 O   0  0  0  0  0  0  0  0  0  0  0  0
    0.5803   20.1838   -2.9976 H   0  0  0  0  0  0  0  0  0  0  0  0
   -1.2437   24.2166   -7.1177 C   0  0  0  0  0  0  0  0  0  0  0  0
   -1.7289   24.6768   -5.7705 C   0  0  0  0  0  0  0  0  0  0  0  0
   -1.0223   24.8890   -4.7987 O   0  0  0  0  0  0  0  0  0  0  0  0
   -3.0205   24.9011   -5.6622 O   0  0  0  0  0  0  0  0  0  0  0  0
   -3.5858   24.7465   -6.3933 H   0  0  0  0  0  0  0  0  0  0  0  0
   -0.2523   25.1818   -7.7362 C   0  0  0  0  0  0  0  0  0  0  0  0
   -0.8058   26.5982   -7.8710 C   0  0  0  0  0  0  0  0  0  0  0  0
    0.0962   27.6261   -7.1880 C   0  0  0  0  0  0  0  0  0  0  0  0
    0.2712   28.9522   -7.9597 C   0  0  0  0  0  0  0  0  0  0  0  0
    0.3180   28.7660   -9.4235 N   0  0  0  0  0  0  0  0  0  0  0  0
   -0.5687   28.3780   -9.7454 H   0  0  0  0  0  0  0  0  0  0  0  0
    1.0755   28.1256   -9.6608 H   0  0  0  0  0  0  0  0  0  0  0  0
   -1.6340   30.2318   -8.5917 O   0  0  0  0  0  0  0  0  0  0  0  0
   -0.8738   29.8614   -7.6917 C   0  0  0  0  0  0  0  0  0  0  0  0
   -1.0277   30.2991   -6.4488 O   0  0  0  0  0  0  0  0  0  0  0  0
   -0.4442   30.0106   -5.7749 H   0  0  0  0  0  0  0  0  0  0  0  0
 25 24  1  0  0  0
 25 26  1  0  0  0
 24 23  1  0  0  0
 23 18  1  0  0  0
 18 19  1  0  0  0
 18  1  1  0  0  0
 19 20  2  0  0  0
 19 21  1  0  0  0
  1  3  1  0  0  0
  6  7  1  0  0  0
  6  3  1  0  0  0
  7  8  1  0  0  0
  2  3  2  0  0  0
  8 14  1  0  0  0
  8 10  1  0  0  0
  9 10  1  0  0  0
  9 11  2  0  0  0
  9 12  1  0  0  0
 30 31  2  0  0  0
 31 32  1  0  0  0
 31 26  1  0  0  0
 26 27  1  0  0  0
  3  4  1  0  0  0
 14 15  2  0  0  0
 14 16  1  0  0  0
 32 33  1  0  0  0
 27 28  1  0  0  0
 27 29  1  0  0  0
 21 22  1  0  0  0
  4  5  1  0  0  0
 16 17  1  0  0  0
 10 13  1  0  0  0
M  END
> <minimizedAffinity>
-7.82764

$$$$
5D2R_56W_A_523


 33 32  0  0  0  0  0  0  0  0999 V2000
    0.8567   24.5935   -6.8372 C   0  0  0  0  0  0  0  0  0  0  0  0
   -0.8369   24.2003   -4.6812 O   0  0  0  0  0  0  0  0  0  0  0  0
    0.5093   23.6597   -5.3109 P   0  0  0  0  0  0  0  0  0  0  0  0
    1.6933   23.6589   -4.4374 O   0  0  0  0  0  0  0  0  0  0  0  0
    2.4550   23.3092   -4.9257 H   0  0  0  0  0  0  0  0  0  0  0  0
    0.3418   21.9321   -5.8279 C   0  0  0  0  0  0  0  0  0  0  0  0
    1.3388   21.0196   -5.1326 C   0  0  0  0  0  0  0  0  0  0  0  0
    1.1533   19.6172   -5.7078 C   0  0  0  0  0  0  0  0  0  0  0  0
    2.3753   17.5199   -5.4598 C   0  0  0  0  0  0  0  0  0  0  0  0
    1.8221   18.6051   -4.9003 N   0  0  0  0  0  0  0  0  0  0  0  0
    2.2787   17.2844   -6.6582 O   0  0  0  0  0  0  0  0  0  0  0  0
    3.1488   16.6247   -4.5307 C   0  0  0  0  0  0  0  0  0  0  0  0
    1.8686   18.7208   -3.9238 H   0  0  0  0  0  0  0  0  0  0  0  0
   -0.3130   19.3547   -5.9183 C   0  0  0  0  0  0  0  0  0  0  0  0
   -0.8072   19.2415   -7.0327 O   0  0  0  0  0  0  0  0  0  0  0  0
   -1.0968   19.2202   -4.8622 O   0  0  0  0  0  0  0  0  0  0  0  0
   -0.7394   19.3030   -4.0000 H   0  0  0  0  0  0  0  0  0  0  0  0
   -0.2682   25.4151   -7.5145 C   0  0  0  0  0  0  0  0  0  0  0  0
   -1.5815   24.6827   -7.5441 C   0  0  0  0  0  0  0  0  0  0  0  0
   -1.8076   23.6607   -8.1711 O   0  0  0  0  0  0  0  0  0  0  0  0
   -2.5420   25.1790   -6.7948 O   0  0  0  0  0  0  0  0  0  0  0  0
   -2.3949   25.9629   -6.3030 H   0  0  0  0  0  0  0  0  0  0  0  0
   -0.4019   26.8203   -6.9624 C   0  0  0  0  0  0  0  0  0  0  0  0
    0.6274   27.7876   -7.5417 C   0  0  0  0  0  0  0  0  0  0  0  0
    0.1447   28.4110   -8.8512 C   0  0  0  0  0  0  0  0  0  0  0  0
   -0.0604   29.9409   -8.8063 C   0  0  0  0  0  0  0  0  0  0  0  0
   -0.6072   30.4868  -10.0644 N   0  0  0  0  0  0  0  0  0  0  0  0
   -1.5326   30.0921  -10.2324 H   0  0  0  0  0  0  0  0  0  0  0  0
    0.0117   30.2436  -10.8379 H   0  0  0  0  0  0  0  0  0  0  0  0
   -0.6926   30.9547   -6.7474 O   0  0  0  0  0  0  0  0  0  0  0  0
   -1.0306   30.3014   -7.7394 C   0  0  0  0  0  0  0  0  0  0  0  0
   -2.2739   29.8573   -7.8695 O   0  0  0  0  0  0  0  0  0  0  0  0
   -2.5178   29.3626   -8.6270 H   0  0  0  0  0  0  0  0  0  0  0  0
 25 24  1  0  0  0
 25 26  1  0  0  0
 24 23  1  0  0  0
 23 18  1  0  0  0
 18 19  1  0  0  0
 18  1  1  0  0  0
 19 20  2  0  0  0
 19 21  1  0  0  0
  1  3  1  0  0  0
  6  7  1  0  0  0
  6  3  1  0  0  0
  7  8  1  0  0  0
  2  3  2  0  0  0
  8 14  1  0  0  0
  8 10  1  0  0  0
  9 10  1  0  0  0
  9 11  2  0  0  0
  9 12  1  0  0  0
 30 31  2  0  0  0
 31 32  1  0  0  0
 31 26  1  0  0  0
 26 27  1  0  0  0
  3  4  1  0  0  0
 14 15  2  0  0  0
 14 16  1  0  0  0
 32 33  1  0  0  0
 27 28  1  0  0  0
 27 29  1  0  0  0
 21 22  1  0  0  0
  4  5  1  0  0  0
 16 17  1  0  0  0
 10 13  1  0  0  0
M  END
> <minimizedAffinity>
-7.69667

$$$$
5D2R_56W_A_523


 33 32  0  0  0  0  0  0  0  0999 V2000
   -0.3661   20.7594   -6.5293 C   0  0  0  0  0  0  0  0  0  0  0  0
   -2.7288   19.5003   -5.8194 O   0  0  0  0  0  0  0  0  0  0  0  0
   -1.1597   19.3174   -5.7461 P   0  0  0  0  0  0  0  0  0  0  0  0
   -0.5834   19.0848   -4.4124 O   0  0  0  0  0  0  0  0  0  0  0  0
    0.3787   18.9879   -4.4884 H   0  0  0  0  0  0  0  0  0  0  0  0
   -0.6226   17.8842   -6.7143 C   0  0  0  0  0  0  0  0  0  0  0  0
    0.3043   16.9694   -5.9305 C   0  0  0  0  0  0  0  0  0  0  0  0
    1.6848   17.0541   -6.5778 C   0  0  0  0  0  0  0  0  0  0  0  0
    1.9913   15.9822   -8.7483 C   0  0  0  0  0  0  0  0  0  0  0  0
    1.6046   17.0478   -8.0330 N   0  0  0  0  0  0  0  0  0  0  0  0
    2.5020   14.9983   -8.2265 O   0  0  0  0  0  0  0  0  0  0  0  0
    1.7311   16.0557  -10.2281 C   0  0  0  0  0  0  0  0  0  0  0  0
    1.2594   17.8426   -8.5002 H   0  0  0  0  0  0  0  0  0  0  0  0
    2.4274   18.2355   -6.0157 C   0  0  0  0  0  0  0  0  0  0  0  0
    3.0339   19.0285   -6.7244 O   0  0  0  0  0  0  0  0  0  0  0  0
    2.4096   18.4397   -4.7097 O   0  0  0  0  0  0  0  0  0  0  0  0
    1.9515   17.8452   -4.1488 H   0  0  0  0  0  0  0  0  0  0  0  0
    0.0844   21.9607   -5.6615 C   0  0  0  0  0  0  0  0  0  0  0  0
    1.4068   21.7223   -4.9858 C   0  0  0  0  0  0  0  0  0  0  0  0
    2.4990   22.0096   -5.4474 O   0  0  0  0  0  0  0  0  0  0  0  0
    1.3587   21.1950   -3.7816 O   0  0  0  0  0  0  0  0  0  0  0  0
    0.5328   20.9651   -3.4035 H   0  0  0  0  0  0  0  0  0  0  0  0
    0.0419   23.2842   -6.3988 C   0  0  0  0  0  0  0  0  0  0  0  0
   -1.3013   23.5452   -7.0760 C   0  0  0  0  0  0  0  0  0  0  0  0
   -1.2719   24.8192   -7.9202 C   0  0  0  0  0  0  0  0  0  0  0  0
   -1.9012   26.0591   -7.2484 C   0  0  0  0  0  0  0  0  0  0  0  0
   -2.3963   25.7872   -5.8844 N   0  0  0  0  0  0  0  0  0  0  0  0
   -1.6148   25.5197   -5.2860 H   0  0  0  0  0  0  0  0  0  0  0  0
   -3.0767   25.0279   -5.9147 H   0  0  0  0  0  0  0  0  0  0  0  0
    0.2936   26.9021   -6.8751 O   0  0  0  0  0  0  0  0  0  0  0  0
   -0.8931   27.1436   -7.1173 C   0  0  0  0  0  0  0  0  0  0  0  0
   -1.3234   28.3935   -7.2284 O   0  0  0  0  0  0  0  0  0  0  0  0
   -2.2263   28.5636   -7.4123 H   0  0  0  0  0  0  0  0  0  0  0  0
 25 24  1  0  0  0
 25 26  1  0  0  0
 24 23  1  0  0  0
 23 18  1  0  0  0
 18 19  1  0  0  0
 18  1  1  0  0  0
 19 20  2  0  0  0
 19 21  1  0  0  0
  1  3  1  0  0  0
  6  7  1  0  0  0
  6  3  1  0  0  0
  7  8  1  0  0  0
  2  3  2  0  0  0
  8 14  1  0  0  0
  8 10  1  0  0  0
  9 10  1  0  0  0
  9 11  2  0  0  0
  9 12  1  0  0  0
 30 31  2  0  0  0
 31 32  1  0  0  0
 31 26  1  0  0  0
 26 27  1  0  0  0
  3  4  1  0  0  0
 14 15  2  0  0  0
 14 16  1  0  0  0
 32 33  1  0  0  0
 27 28  1  0  0  0
 27 29  1  0  0  0
 21 22  1  0  0  0
  4  5  1  0  0  0
 16 17  1  0  0  0
 10 13  1  0  0  0
M  END
> <minimizedAffinity>
-7.16922

$$$$
5D2R_56W_A_523


 33 32  0  0  0  0  0  0  0  0999 V2000
    0.3049   24.7783   -7.1029 C   0  0  0  0  0  0  0  0  0  0  0  0
   -1.5828   22.8378   -6.5178 O   0  0  0  0  0  0  0  0  0  0  0  0
   -0.5683   23.8274   -5.8161 P   0  0  0  0  0  0  0  0  0  0  0  0
   -1.1270   24.7386   -4.8049 O   0  0  0  0  0  0  0  0  0  0  0  0
   -0.4187   25.2947   -4.4443 H   0  0  0  0  0  0  0  0  0  0  0  0
    0.7215   22.9191   -4.9265 C   0  0  0  0  0  0  0  0  0  0  0  0
    1.3956   21.8697   -5.7950 C   0  0  0  0  0  0  0  0  0  0  0  0
    0.7853   20.5171   -5.4344 C   0  0  0  0  0  0  0  0  0  0  0  0
   -1.4007   19.5356   -5.8944 C   0  0  0  0  0  0  0  0  0  0  0  0
   -0.2955   20.1492   -6.3402 N   0  0  0  0  0  0  0  0  0  0  0  0
   -1.5242   19.1835   -4.7274 O   0  0  0  0  0  0  0  0  0  0  0  0
   -2.4934   19.3335   -6.9085 C   0  0  0  0  0  0  0  0  0  0  0  0
   -0.2122   20.3556   -7.2992 H   0  0  0  0  0  0  0  0  0  0  0  0
    1.8771   19.4864   -5.3414 C   0  0  0  0  0  0  0  0  0  0  0  0
    1.9287   18.6633   -4.4365 O   0  0  0  0  0  0  0  0  0  0  0  0
    2.8060   19.4520   -6.2814 O   0  0  0  0  0  0  0  0  0  0  0  0
    2.7856   20.0726   -6.9832 H   0  0  0  0  0  0  0  0  0  0  0  0
   -0.3411   26.0566   -7.6926 C   0  0  0  0  0  0  0  0  0  0  0  0
   -1.5465   26.5072   -6.9140 C   0  0  0  0  0  0  0  0  0  0  0  0
   -2.6986   26.1740   -7.1381 O   0  0  0  0  0  0  0  0  0  0  0  0
   -1.3147   27.2946   -5.8860 O   0  0  0  0  0  0  0  0  0  0  0  0
   -0.4391   27.5656   -5.6915 H   0  0  0  0  0  0  0  0  0  0  0  0
    0.6505   27.1792   -7.9243 C   0  0  0  0  0  0  0  0  0  0  0  0
    0.1366   28.2349   -8.9001 C   0  0  0  0  0  0  0  0  0  0  0  0
    0.4636   29.6510   -8.4263 C   0  0  0  0  0  0  0  0  0  0  0  0
   -0.6602   30.6866   -8.6482 C   0  0  0  0  0  0  0  0  0  0  0  0
   -1.4921   30.3906   -9.8314 N   0  0  0  0  0  0  0  0  0  0  0  0
   -1.9664   29.4974   -9.6987 H   0  0  0  0  0  0  0  0  0  0  0  0
   -0.8994   30.3410  -10.6600 H   0  0  0  0  0  0  0  0  0  0  0  0
   -1.3828   30.0084   -6.4838 O   0  0  0  0  0  0  0  0  0  0  0  0
   -1.5838   30.7049   -7.4836 C   0  0  0  0  0  0  0  0  0  0  0  0
   -2.6637   31.4702   -7.5730 O   0  0  0  0  0  0  0  0  0  0  0  0
   -2.8047   31.9941   -8.3370 H   0  0  0  0  0  0  0  0  0  0  0  0
 25 24  1  0  0  0
 25 26  1  0  0  0
 24 23  1  0  0  0
 23 18  1  0  0  0
 18 19  1  0  0  0
 18  1  1  0  0  0
 19 20  2  0  0  0
 19 21  1  0  0  0
  1  3  1  0  0  0
  6  7  1  0  0  0
  6  3  1  0  0  0
  7  8  1  0  0  0
  2  3  2  0  0  0
  8 14  1  0  0  0
  8 10  1  0  0  0
  9 10  1  0  0  0
  9 11  2  0  0  0
  9 12  1  0  0  0
 30 31  2  0  0  0
 31 32  1  0  0  0
 31 26  1  0  0  0
 26 27  1  0  0  0
  3  4  1  0  0  0
 14 15  2  0  0  0
 14 16  1  0  0  0
 32 33  1  0  0  0
 27 28  1  0  0  0
 27 29  1  0  0  0
 21 22  1  0  0  0
  4  5  1  0  0  0
 16 17  1  0  0  0
 10 13  1  0  0  0
M  END
> <minimizedAffinity>
-7.09276

$$$$
5D2R_56W_A_523


 33 32  0  0  0  0  0  0  0  0999 V2000
   -0.3127   20.5196   -5.8778 C   0  0  0  0  0  0  0  0  0  0  0  0
    2.4479   20.7178   -5.7722 O   0  0  0  0  0  0  0  0  0  0  0  0
    1.1445   21.1863   -5.0090 P   0  0  0  0  0  0  0  0  0  0  0  0
    1.0683   20.8673   -3.5747 O   0  0  0  0  0  0  0  0  0  0  0  0
    0.2318   21.2000   -3.2134 H   0  0  0  0  0  0  0  0  0  0  0  0
    0.9625   22.9871   -5.0703 C   0  0  0  0  0  0  0  0  0  0  0  0
    0.8247   23.5079   -6.4916 C   0  0  0  0  0  0  0  0  0  0  0  0
   -0.1385   24.6923   -6.4530 C   0  0  0  0  0  0  0  0  0  0  0  0
   -0.2654   27.0007   -7.2334 C   0  0  0  0  0  0  0  0  0  0  0  0
    0.3271   25.7992   -7.2788 N   0  0  0  0  0  0  0  0  0  0  0  0
   -1.2692   27.2066   -6.5617 O   0  0  0  0  0  0  0  0  0  0  0  0
    0.3961   28.0892   -8.0337 C   0  0  0  0  0  0  0  0  0  0  0  0
    1.0925   25.6616   -7.8824 H   0  0  0  0  0  0  0  0  0  0  0  0
   -1.5246   24.2192   -6.7968 C   0  0  0  0  0  0  0  0  0  0  0  0
   -1.7601   23.5393   -7.7873 O   0  0  0  0  0  0  0  0  0  0  0  0
   -2.5250   24.5302   -5.9906 O   0  0  0  0  0  0  0  0  0  0  0  0
   -2.3671   25.0496   -5.2268 H   0  0  0  0  0  0  0  0  0  0  0  0
   -0.6506   19.0114   -5.7768 C   0  0  0  0  0  0  0  0  0  0  0  0
   -2.1188   18.7605   -5.5678 C   0  0  0  0  0  0  0  0  0  0  0  0
   -2.6103   18.2006   -4.6016 O   0  0  0  0  0  0  0  0  0  0  0  0
   -2.9268   19.2252   -6.4960 O   0  0  0  0  0  0  0  0  0  0  0  0
   -2.5756   19.6594   -7.2484 H   0  0  0  0  0  0  0  0  0  0  0  0
   -0.0798   18.1900   -6.9156 C   0  0  0  0  0  0  0  0  0  0  0  0
    0.2377   16.7525   -6.5113 C   0  0  0  0  0  0  0  0  0  0  0  0
    1.7421   16.4818   -6.5167 C   0  0  0  0  0  0  0  0  0  0  0  0
    2.3040   15.9062   -5.1985 C   0  0  0  0  0  0  0  0  0  0  0  0
    3.7240   15.5148   -5.2989 N   0  0  0  0  0  0  0  0  0  0  0  0
    4.2904   16.3389   -5.5003 H   0  0  0  0  0  0  0  0  0  0  0  0
    3.8366   14.8332   -6.0494 H   0  0  0  0  0  0  0  0  0  0  0  0
    1.7117   16.6701   -3.0231 O   0  0  0  0  0  0  0  0  0  0  0  0
    2.2274   16.9225   -4.1165 C   0  0  0  0  0  0  0  0  0  0  0  0
    2.6984   18.1339   -4.3825 O   0  0  0  0  0  0  0  0  0  0  0  0
    3.0874   18.3127   -5.2159 H   0  0  0  0  0  0  0  0  0  0  0  0
 25 24  1  0  0  0
 25 26  1  0  0  0
 24 23  1  0  0  0
 23 18  1  0  0  0
 18 19  1  0  0  0
 18  1  1  0  0  0
 19 20  2  0  0  0
 19 21  1  0  0  0
  1  3  1  0  0  0
  6  7  1  0  0  0
  6  3  1  0  0  0
  7  8  1  0  0  0
  2  3  2  0  0  0
  8 14  1  0  0  0
  8 10  1  0  0  0
  9 10  1  0  0  0
  9 11  2  0  0  0
  9 12  1  0  0  0
 30 31  2  0  0  0
 31 32  1  0  0  0
 31 26  1  0  0  0
 26 27  1  0  0  0
  3  4  1  0  0  0
 14 15  2  0  0  0
 14 16  1  0  0  0
 32 33  1  0  0  0
 27 28  1  0  0  0
 27 29  1  0  0  0
 21 22  1  0  0  0
  4  5  1  0  0  0
 16 17  1  0  0  0
 10 13  1  0  0  0
M  END
> <minimizedAffinity>
-6.96590

$$$$
5D2R_56W_A_523


 33 32  0  0  0  0  0  0  0  0999 V2000
    0.1601   24.4782   -7.2436 C   0  0  0  0  0  0  0  0  0  0  0  0
   -1.5528   25.7781   -5.4978 O   0  0  0  0  0  0  0  0  0  0  0  0
   -1.2618   25.6008   -7.0420 P   0  0  0  0  0  0  0  0  0  0  0  0
   -2.3853   25.1497   -7.8782 O   0  0  0  0  0  0  0  0  0  0  0  0
   -2.0931   25.0766   -8.8003 H   0  0  0  0  0  0  0  0  0  0  0  0
   -0.7526   27.1669   -7.7955 C   0  0  0  0  0  0  0  0  0  0  0  0
   -1.6061   28.3369   -7.3340 C   0  0  0  0  0  0  0  0  0  0  0  0
   -0.9726   29.6113   -7.8878 C   0  0  0  0  0  0  0  0  0  0  0  0
   -0.5417   30.6514  -10.0526 C   0  0  0  0  0  0  0  0  0  0  0  0
   -1.2334   29.7736   -9.3124 N   0  0  0  0  0  0  0  0  0  0  0  0
    0.2821   31.4123   -9.5593 O   0  0  0  0  0  0  0  0  0  0  0  0
   -0.8168   30.6234  -11.5313 C   0  0  0  0  0  0  0  0  0  0  0  0
   -1.9320   29.2274   -9.7400 H   0  0  0  0  0  0  0  0  0  0  0  0
   -1.4049   30.7861   -7.0536 C   0  0  0  0  0  0  0  0  0  0  0  0
   -2.5602   31.1909   -7.0371 O   0  0  0  0  0  0  0  0  0  0  0  0
   -0.5108   31.3940   -6.2929 O   0  0  0  0  0  0  0  0  0  0  0  0
    0.3791   31.1006   -6.2902 H   0  0  0  0  0  0  0  0  0  0  0  0
    0.2967   23.2318   -6.3342 C   0  0  0  0  0  0  0  0  0  0  0  0
    0.6300   23.5878   -4.9114 C   0  0  0  0  0  0  0  0  0  0  0  0
    1.7509   23.8021   -4.4798 O   0  0  0  0  0  0  0  0  0  0  0  0
   -0.3885   23.7118   -4.0883 O   0  0  0  0  0  0  0  0  0  0  0  0
   -1.2599   23.5531   -4.3940 H   0  0  0  0  0  0  0  0  0  0  0  0
   -0.8820   22.2841   -6.4323 C   0  0  0  0  0  0  0  0  0  0  0  0
   -0.4685   20.8531   -6.7670 C   0  0  0  0  0  0  0  0  0  0  0  0
    0.0122   20.0980   -5.5278 C   0  0  0  0  0  0  0  0  0  0  0  0
    1.4501   19.5429   -5.6218 C   0  0  0  0  0  0  0  0  0  0  0  0
    2.3132   19.9854   -4.5087 N   0  0  0  0  0  0  0  0  0  0  0  0
    1.9407   19.6307   -3.6278 H   0  0  0  0  0  0  0  0  0  0  0  0
    2.3374   21.0048   -4.4817 H   0  0  0  0  0  0  0  0  0  0  0  0
    2.0215   17.3729   -6.4164 O   0  0  0  0  0  0  0  0  0  0  0  0
    1.4351   18.0573   -5.5721 C   0  0  0  0  0  0  0  0  0  0  0  0
    0.7288   17.4861   -4.6053 O   0  0  0  0  0  0  0  0  0  0  0  0
    0.2885   18.0165   -3.9707 H   0  0  0  0  0  0  0  0  0  0  0  0
 25 24  1  0  0  0
 25 26  1  0  0  0
 24 23  1  0  0  0
 23 18  1  0  0  0
 18 19  1  0  0  0
 18  1  1  0  0  0
 19 20  2  0  0  0
 19 21  1  0  0  0
  1  3  1  0  0  0
  6  7  1  0  0  0
  6  3  1  0  0  0
  7  8  1  0  0  0
  2  3  2  0  0  0
  8 14  1  0  0  0
  8 10  1  0  0  0
  9 10  1  0  0  0
  9 11  2  0  0  0
  9 12  1  0  0  0
 30 31  2  0  0  0
 31 32  1  0  0  0
 31 26  1  0  0  0
 26 27  1  0  0  0
  3  4  1  0  0  0
 14 15  2  0  0  0
 14 16  1  0  0  0
 32 33  1  0  0  0
 27 28  1  0  0  0
 27 29  1  0  0  0
 21 22  1  0  0  0
  4  5  1  0  0  0
 16 17  1  0  0  0
 10 13  1  0  0  0
M  END
> <minimizedAffinity>
-6.95228

$$$$
