2W8Y_486_A_1000


 33 37  0  0  0  0  0  0  0  0999 V2000
   13.8636    7.5975    3.1875 O   0  0  0  0  0  0  0  0  0  0  0  0
   13.3173    6.9346    4.0460 C   0  0  0  0  0  0  0  0  0  0  0  0
   11.8231    7.0020    4.1281 C   0  0  0  0  0  0  0  0  0  0  0  0
   14.0919    6.1643    4.9288 C   0  0  0  0  0  0  0  0  0  0  0  0
   13.5360    5.5148    5.9717 C   0  0  0  0  0  0  0  0  0  0  0  0
   14.4245    4.6157    6.7923 C   0  0  0  0  0  0  0  0  0  0  0  0
   12.1017    5.6577    6.3207 C   0  0  0  0  0  0  0  0  0  0  0  0
   11.2140    6.5159    5.4396 C   0  0  0  0  0  0  0  0  0  0  0  0
   11.5883    5.1033    7.4464 C   0  0  0  0  0  0  0  0  0  0  0  0
   10.1027    5.3249    7.8047 C   0  0  0  0  0  0  0  0  0  0  0  0
    9.8399    5.3765    9.3393 C   0  0  0  0  0  0  0  0  0  0  0  0
   10.5719    4.2750   10.0787 C   0  0  0  0  0  0  0  0  0  0  0  0
   10.1040    2.9027    9.5746 C   0  0  0  0  0  0  0  0  0  0  0  0
   10.5391    4.3218   11.6161 C   0  0  0  0  0  0  0  0  0  0  0  0
    9.3571    3.7676   12.1579 O   0  0  0  0  0  0  0  0  0  0  0  0
   11.7455    3.4521   12.0189 C   0  0  0  0  0  0  0  0  0  0  0  0
   12.7195    3.5165   10.8165 C   0  0  0  0  0  0  0  0  0  0  0  0
   12.0813    4.4971    9.8232 C   0  0  0  0  0  0  0  0  0  0  0  0
   12.4550    4.2660    8.3577 C   0  0  0  0  0  0  0  0  0  0  0  0
   13.9285    4.5974    8.2332 C   0  0  0  0  0  0  0  0  0  0  0  0
    8.5976    4.3151   11.9043 H   0  0  0  0  0  0  0  0  0  0  0  0
    9.1702    4.3602    7.0519 C   0  0  0  0  0  0  0  0  0  0  0  0
    9.6203    3.4043    6.1437 C   0  0  0  0  0  0  0  0  0  0  0  0
    8.7283    2.5829    5.4589 C   0  0  0  0  0  0  0  0  0  0  0  0
    7.3498    2.6811    5.6607 C   0  0  0  0  0  0  0  0  0  0  0  0
    6.8915    3.6415    6.5515 C   0  0  0  0  0  0  0  0  0  0  0  0
    7.7962    4.4671    7.2220 C   0  0  0  0  0  0  0  0  0  0  0  0
    6.4464    1.8571    4.9603 N   0  0  0  0  0  0  0  0  0  0  0  0
    6.8008    0.5251    4.4602 C   0  0  0  0  0  0  0  0  0  0  0  0
    5.2146    2.4550    4.4289 C   0  0  0  0  0  0  0  0  0  0  0  0
   10.7357    5.6663   12.1890 C   0  0  0  0  0  0  0  0  0  0  0  0
   10.9203    6.7472   12.5896 C   0  0  0  0  0  0  0  0  0  0  0  0
   11.2139    8.1073   13.0698 C   0  0  0  0  0  0  0  0  0  0  0  0
  1  2  2  0  0  0
  2  3  1  0  0  0
  2  4  1  0  0  0
  3  8  1  0  0  0
  4  5  2  0  0  0
  5  6  1  0  0  0
  5  7  1  0  0  0
  6 20  1  0  0  0
  7  8  1  0  0  0
  7  9  2  0  0  0
  9 10  1  0  0  0
  9 19  1  0  0  0
 10 22  1  0  0  0
 10 11  1  0  0  0
 22 23  2  0  0  0
 22 27  1  0  0  0
 23 24  1  0  0  0
 24 25  2  0  0  0
 25 28  1  0  0  0
 25 26  1  0  0  0
 28 29  1  0  0  0
 28 30  1  0  0  0
 26 27  2  0  0  0
 11 12  1  0  0  0
 12 13  1  0  0  0
 12 14  1  0  0  0
 12 18  1  0  0  0
 14 31  1  0  0  0
 14 15  1  0  0  0
 14 16  1  0  0  0
 31 32  3  0  0  0
 32 33  1  0  0  0
 16 17  1  0  0  0
 17 18  1  0  0  0
 18 19  1  0  0  0
 19 20  1  0  0  0
 15 21  1  0  0  0
M  END
> <minimizedAffinity>
-12.57283

$$$$
