4ZCS_CDC_A_801


 36 37  0  0  0  0  0  0  0  0999 V2000
   18.7593   21.8708   52.4078 C   0  0  0  0  0  0  0  0  0  0  0  0
   18.4923   21.1801   51.1022 C   0  0  0  0  0  0  0  0  0  0  0  0
   19.2523   20.0024   51.1030 O   0  0  0  0  0  0  0  0  0  0  0  0
   19.0237   22.2197   50.1178 C   0  0  0  0  0  0  0  0  0  0  0  0
   18.6473   23.5381   50.7637 C   0  0  0  0  0  0  0  0  0  0  0  0
   18.4206   23.2160   52.2048 O   0  0  0  0  0  0  0  0  0  0  0  0
   20.4223   22.1954   50.0807 O   0  0  0  0  0  0  0  0  0  0  0  0
   20.1792   20.2158   51.2935 H   0  0  0  0  0  0  0  0  0  0  0  0
   20.7720   22.3422   50.9735 H   0  0  0  0  0  0  0  0  0  0  0  0
   17.9051   21.3227   53.4168 N   0  0  0  0  0  0  0  0  0  0  0  0
   18.4202   20.4826   54.2841 C   0  0  0  0  0  0  0  0  0  0  0  0
   17.6098   19.9581   55.2939 N   0  0  0  0  0  0  0  0  0  0  0  0
   16.2420   20.2472   55.3742 C   0  0  0  0  0  0  0  0  0  0  0  0
   15.7081   21.1596   54.4735 C   0  0  0  0  0  0  0  0  0  0  0  0
   16.5501   21.6833   53.4914 C   0  0  0  0  0  0  0  0  0  0  0  0
   19.6060   20.1598   54.1568 O   0  0  0  0  0  0  0  0  0  0  0  0
   15.4723   19.7288   56.3209 N   0  0  0  0  0  0  0  0  0  0  0  0
   15.8476   19.0817   56.9610 H   0  0  0  0  0  0  0  0  0  0  0  0
   14.5254   19.9908   56.3839 H   0  0  0  0  0  0  0  0  0  0  0  0
   17.4745   24.1230   50.0280 C   0  0  0  0  0  0  0  0  0  0  0  0
   16.2827   23.8702   50.7578 O   0  0  0  0  0  0  0  0  0  0  0  0
   14.9304   24.2433   50.0742 P   0  0  0  0  0  0  0  0  0  0  0  0
   14.5828   25.5882   50.4283 O   0  0  0  0  0  0  0  0  0  0  0  0
   13.9384   23.1406   50.2802 O   0  0  0  0  0  0  0  0  0  0  0  0
   13.7682   23.0319   51.2289 H   0  0  0  0  0  0  0  0  0  0  0  0
   15.1995   24.4140   48.5622 O   0  0  0  0  0  0  0  0  0  0  0  0
   15.2657   23.2588   47.4414 P   0  0  0  0  0  0  0  0  0  0  0  0
   14.0861   23.3678   46.5300 O   0  0  0  0  0  0  0  0  0  0  0  0
   15.3943   21.9337   48.1062 O   0  0  0  0  0  0  0  0  0  0  0  0
   16.3696   23.7642   46.5180 O   0  0  0  0  0  0  0  0  0  0  0  0
   16.6040   23.0577   45.2856 C   0  0  0  0  0  0  0  0  0  0  0  0
   17.3406   24.0192   44.3493 C   0  0  0  0  0  0  0  0  0  0  0  0
   16.4884   24.5412   43.2356 N   0  0  0  0  0  0  0  0  0  0  0  0
   16.2037   23.5713   42.1850 C   0  0  0  0  0  0  0  0  0  0  0  0
   17.2856   25.6299   42.6501 C   0  0  0  0  0  0  0  0  0  0  0  0
   15.1706   25.0949   43.7020 C   0  0  0  0  0  0  0  0  0  0  0  0
 10 11  1  0  0  0
 10 15  1  0  0  0
 10  1  1  0  0  0
 11 12  1  0  0  0
 11 16  2  0  0  0
 12 13  2  0  0  0
 13 14  1  0  0  0
 13 17  1  0  0  0
 14 15  2  0  0  0
  1  2  1  0  0  0
  1  6  1  0  0  0
  2  3  1  0  0  0
  2  4  1  0  0  0
  4  5  1  0  0  0
  4  7  1  0  0  0
  5  6  1  0  0  0
  5 20  1  0  0  0
 20 21  1  0  0  0
 21 22  1  0  0  0
 22 23  2  0  0  0
 22 24  1  0  0  0
 22 26  1  0  0  0
 26 27  1  0  0  0
 27 30  1  0  0  0
 27 28  1  0  0  0
 27 29  2  0  0  0
 30 31  1  0  0  0
 31 32  1  0  0  0
 32 33  1  0  0  0
 33 34  1  0  0  0
 33 35  1  0  0  0
 33 36  1  0  0  0
 17 18  1  0  0  0
 17 19  1  0  0  0
  3  8  1  0  0  0
  7  9  1  0  0  0
 24 25  1  0  0  0
M  CHG 1  28  -1
M  CHG 1  33   1
M  END
> <minimizedAffinity>
-9.52349

$$$$
4ZCS_CDC_A_801


 36 37  0  0  0  0  0  0  0  0999 V2000
   17.6341   20.5070   53.3459 C   0  0  0  0  0  0  0  0  0  0  0  0
   17.8366   21.1691   54.6777 C   0  0  0  0  0  0  0  0  0  0  0  0
   19.0880   20.7522   55.1522 O   0  0  0  0  0  0  0  0  0  0  0  0
   16.6790   20.5681   55.4719 C   0  0  0  0  0  0  0  0  0  0  0  0
   15.5656   20.4704   54.4483 C   0  0  0  0  0  0  0  0  0  0  0  0
   16.2502   20.5158   53.1213 O   0  0  0  0  0  0  0  0  0  0  0  0
   16.9697   19.2526   55.8502 O   0  0  0  0  0  0  0  0  0  0  0  0
   19.1304   19.7832   55.1441 H   0  0  0  0  0  0  0  0  0  0  0  0
   17.1684   18.7255   55.0605 H   0  0  0  0  0  0  0  0  0  0  0  0
   18.2758   21.2829   52.3288 N   0  0  0  0  0  0  0  0  0  0  0  0
   19.1127   20.6803   51.5166 C   0  0  0  0  0  0  0  0  0  0  0  0
   19.7281   21.4139   50.4995 N   0  0  0  0  0  0  0  0  0  0  0  0
   19.5334   22.7933   50.3563 C   0  0  0  0  0  0  0  0  0  0  0  0
   18.6243   23.4207   51.1981 C   0  0  0  0  0  0  0  0  0  0  0  0
   18.0087   22.6543   52.1888 C   0  0  0  0  0  0  0  0  0  0  0  0
   19.3513   19.4822   51.7015 O   0  0  0  0  0  0  0  0  0  0  0  0
   20.1376   23.4893   49.4034 N   0  0  0  0  0  0  0  0  0  0  0  0
   20.7826   23.0476   48.8049 H   0  0  0  0  0  0  0  0  0  0  0  0
   19.9414   24.4479   49.2942 H   0  0  0  0  0  0  0  0  0  0  0  0
   14.5664   21.5620   54.7107 C   0  0  0  0  0  0  0  0  0  0  0  0
   13.3389   20.9890   55.1373 O   0  0  0  0  0  0  0  0  0  0  0  0
   12.0644   21.3173   54.2987 P   0  0  0  0  0  0  0  0  0  0  0  0
   11.3121   22.3360   54.9707 O   0  0  0  0  0  0  0  0  0  0  0  0
   11.3898   20.0460   53.8852 O   0  0  0  0  0  0  0  0  0  0  0  0
   11.1052   19.5594   54.6745 H   0  0  0  0  0  0  0  0  0  0  0  0
   12.5167   22.0901   53.0393 O   0  0  0  0  0  0  0  0  0  0  0  0
   12.5255   21.5642   51.5167 P   0  0  0  0  0  0  0  0  0  0  0  0
   11.1340   21.5667   50.9710 O   0  0  0  0  0  0  0  0  0  0  0  0
   13.1946   20.2364   51.4576 O   0  0  0  0  0  0  0  0  0  0  0  0
   13.1137   22.7539   50.7649 O   0  0  0  0  0  0  0  0  0  0  0  0
   14.5218   23.0200   50.9049 C   0  0  0  0  0  0  0  0  0  0  0  0
   15.0079   23.5837   49.5671 C   0  0  0  0  0  0  0  0  0  0  0  0
   15.5873   22.5479   48.6558 N   0  0  0  0  0  0  0  0  0  0  0  0
   16.1028   21.3647   49.3339 C   0  0  0  0  0  0  0  0  0  0  0  0
   16.7156   23.2302   48.0040 C   0  0  0  0  0  0  0  0  0  0  0  0
   14.6251   22.0755   47.6016 C   0  0  0  0  0  0  0  0  0  0  0  0
 10 11  1  0  0  0
 10 15  1  0  0  0
 10  1  1  0  0  0
 11 12  1  0  0  0
 11 16  2  0  0  0
 12 13  2  0  0  0
 13 14  1  0  0  0
 13 17  1  0  0  0
 14 15  2  0  0  0
  1  2  1  0  0  0
  1  6  1  0  0  0
  2  3  1  0  0  0
  2  4  1  0  0  0
  4  5  1  0  0  0
  4  7  1  0  0  0
  5  6  1  0  0  0
  5 20  1  0  0  0
 20 21  1  0  0  0
 21 22  1  0  0  0
 22 23  2  0  0  0
 22 24  1  0  0  0
 22 26  1  0  0  0
 26 27  1  0  0  0
 27 30  1  0  0  0
 27 28  1  0  0  0
 27 29  2  0  0  0
 30 31  1  0  0  0
 31 32  1  0  0  0
 32 33  1  0  0  0
 33 34  1  0  0  0
 33 35  1  0  0  0
 33 36  1  0  0  0
 17 18  1  0  0  0
 17 19  1  0  0  0
  3  8  1  0  0  0
  7  9  1  0  0  0
 24 25  1  0  0  0
M  CHG 1  28  -1
M  CHG 1  33   1
M  END
> <minimizedAffinity>
-8.67833

$$$$
4ZCS_CDC_A_801


 36 37  0  0  0  0  0  0  0  0999 V2000
   18.6767   21.8639   52.3985 C   0  0  0  0  0  0  0  0  0  0  0  0
   18.4606   21.1179   51.1141 C   0  0  0  0  0  0  0  0  0  0  0  0
   19.2792   19.9811   51.1622 O   0  0  0  0  0  0  0  0  0  0  0  0
   18.9504   22.1502   50.1010 C   0  0  0  0  0  0  0  0  0  0  0  0
   18.5001   23.4682   50.6984 C   0  0  0  0  0  0  0  0  0  0  0  0
   18.2728   23.1827   52.1470 O   0  0  0  0  0  0  0  0  0  0  0  0
   20.3489   22.1960   50.0791 O   0  0  0  0  0  0  0  0  0  0  0  0
   20.1918   20.2476   51.3549 H   0  0  0  0  0  0  0  0  0  0  0  0
   20.6800   22.3898   50.9700 H   0  0  0  0  0  0  0  0  0  0  0  0
   17.8393   21.3065   53.4165 N   0  0  0  0  0  0  0  0  0  0  0  0
   18.3815   20.5045   54.3031 C   0  0  0  0  0  0  0  0  0  0  0  0
   17.5870   19.9722   55.3215 N   0  0  0  0  0  0  0  0  0  0  0  0
   16.2092   20.2128   55.3915 C   0  0  0  0  0  0  0  0  0  0  0  0
   15.6458   21.0857   54.4699 C   0  0  0  0  0  0  0  0  0  0  0  0
   16.4717   21.6188   53.4793 C   0  0  0  0  0  0  0  0  0  0  0  0
   19.5787   20.2227   54.1862 O   0  0  0  0  0  0  0  0  0  0  0  0
   15.4555   19.6867   56.3468 N   0  0  0  0  0  0  0  0  0  0  0  0
   15.8517   19.0676   57.0017 H   0  0  0  0  0  0  0  0  0  0  0  0
   14.4994   19.9152   56.4014 H   0  0  0  0  0  0  0  0  0  0  0  0
   17.3082   23.9680   49.9315 C   0  0  0  0  0  0  0  0  0  0  0  0
   16.1168   23.5185   50.5606 O   0  0  0  0  0  0  0  0  0  0  0  0
   14.7799   23.6976   49.7757 P   0  0  0  0  0  0  0  0  0  0  0  0
   14.9761   24.6599   48.7314 O   0  0  0  0  0  0  0  0  0  0  0  0
   13.6465   23.8675   50.7395 O   0  0  0  0  0  0  0  0  0  0  0  0
   13.7878   24.6694   51.2666 H   0  0  0  0  0  0  0  0  0  0  0  0
   14.5521   22.4195   48.9376 O   0  0  0  0  0  0  0  0  0  0  0  0
   14.4490   20.9028   49.4707 P   0  0  0  0  0  0  0  0  0  0  0  0
   13.9598   20.8935   50.8830 O   0  0  0  0  0  0  0  0  0  0  0  0
   15.7593   20.2236   49.2814 O   0  0  0  0  0  0  0  0  0  0  0  0
   13.2069   20.3884   48.7500 O   0  0  0  0  0  0  0  0  0  0  0  0
   12.9146   18.9802   48.8162 C   0  0  0  0  0  0  0  0  0  0  0  0
   12.9782   18.4400   47.3852 C   0  0  0  0  0  0  0  0  0  0  0  0
   13.7527   17.1658   47.2599 N   0  0  0  0  0  0  0  0  0  0  0  0
   15.1989   17.3245   47.3528 C   0  0  0  0  0  0  0  0  0  0  0  0
   13.4312   16.6787   45.9098 C   0  0  0  0  0  0  0  0  0  0  0  0
   13.3518   16.1227   48.2656 C   0  0  0  0  0  0  0  0  0  0  0  0
 10 11  1  0  0  0
 10 15  1  0  0  0
 10  1  1  0  0  0
 11 12  1  0  0  0
 11 16  2  0  0  0
 12 13  2  0  0  0
 13 14  1  0  0  0
 13 17  1  0  0  0
 14 15  2  0  0  0
  1  2  1  0  0  0
  1  6  1  0  0  0
  2  3  1  0  0  0
  2  4  1  0  0  0
  4  5  1  0  0  0
  4  7  1  0  0  0
  5  6  1  0  0  0
  5 20  1  0  0  0
 20 21  1  0  0  0
 21 22  1  0  0  0
 22 23  2  0  0  0
 22 24  1  0  0  0
 22 26  1  0  0  0
 26 27  1  0  0  0
 27 30  1  0  0  0
 27 28  1  0  0  0
 27 29  2  0  0  0
 30 31  1  0  0  0
 31 32  1  0  0  0
 32 33  1  0  0  0
 33 34  1  0  0  0
 33 35  1  0  0  0
 33 36  1  0  0  0
 17 18  1  0  0  0
 17 19  1  0  0  0
  3  8  1  0  0  0
  7  9  1  0  0  0
 24 25  1  0  0  0
M  CHG 1  28  -1
M  CHG 1  33   1
M  END
> <minimizedAffinity>
-8.50747

$$$$
4ZCS_CDC_A_801


 36 37  0  0  0  0  0  0  0  0999 V2000
   15.0883   23.4935   47.1800 C   0  0  0  0  0  0  0  0  0  0  0  0
   15.8618   22.3607   47.7895 C   0  0  0  0  0  0  0  0  0  0  0  0
   15.3559   21.1778   47.2330 O   0  0  0  0  0  0  0  0  0  0  0  0
   15.4882   22.5221   49.2614 C   0  0  0  0  0  0  0  0  0  0  0  0
   15.4110   24.0251   49.4402 C   0  0  0  0  0  0  0  0  0  0  0  0
   15.2336   24.5735   48.0620 O   0  0  0  0  0  0  0  0  0  0  0  0
   14.1962   22.0400   49.4990 O   0  0  0  0  0  0  0  0  0  0  0  0
   14.3933   21.1515   47.3495 H   0  0  0  0  0  0  0  0  0  0  0  0
   13.5678   22.5012   48.9218 H   0  0  0  0  0  0  0  0  0  0  0  0
   15.6705   23.8401   45.9194 N   0  0  0  0  0  0  0  0  0  0  0  0
   14.8963   24.3560   44.9933 C   0  0  0  0  0  0  0  0  0  0  0  0
   15.4507   24.7271   43.7659 N   0  0  0  0  0  0  0  0  0  0  0  0
   16.7996   24.5052   43.4625 C   0  0  0  0  0  0  0  0  0  0  0  0
   17.6211   23.9875   44.4553 C   0  0  0  0  0  0  0  0  0  0  0  0
   17.0406   23.6490   45.6785 C   0  0  0  0  0  0  0  0  0  0  0  0
   13.6892   24.4677   45.2316 O   0  0  0  0  0  0  0  0  0  0  0  0
   17.3158   24.8382   42.2877 N   0  0  0  0  0  0  0  0  0  0  0  0
   16.7363   25.2055   41.5816 H   0  0  0  0  0  0  0  0  0  0  0  0
   18.2787   24.7183   42.1213 H   0  0  0  0  0  0  0  0  0  0  0  0
   16.6331   24.4904   50.1811 C   0  0  0  0  0  0  0  0  0  0  0  0
   17.1672   23.4141   50.9383 O   0  0  0  0  0  0  0  0  0  0  0  0
   18.7139   23.3796   51.1433 P   0  0  0  0  0  0  0  0  0  0  0  0
   19.0590   24.2336   52.2418 O   0  0  0  0  0  0  0  0  0  0  0  0
   19.4027   23.5498   49.8247 O   0  0  0  0  0  0  0  0  0  0  0  0
   19.1749   24.4151   49.4502 H   0  0  0  0  0  0  0  0  0  0  0  0
   19.0786   22.0005   51.7373 O   0  0  0  0  0  0  0  0  0  0  0  0
   19.2539   20.6078   50.9469 P   0  0  0  0  0  0  0  0  0  0  0  0
   20.6865   20.4175   50.5657 O   0  0  0  0  0  0  0  0  0  0  0  0
   18.3130   20.5731   49.7947 O   0  0  0  0  0  0  0  0  0  0  0  0
   19.1327   19.5802   52.0677 O   0  0  0  0  0  0  0  0  0  0  0  0
   18.8666   20.0540   53.4010 C   0  0  0  0  0  0  0  0  0  0  0  0
   17.4013   19.7339   53.7078 C   0  0  0  0  0  0  0  0  0  0  0  0
   16.6640   20.8643   54.3541 N   0  0  0  0  0  0  0  0  0  0  0  0
   17.4526   22.0772   54.5346 C   0  0  0  0  0  0  0  0  0  0  0  0
   16.3059   20.3487   55.6843 C   0  0  0  0  0  0  0  0  0  0  0  0
   15.4080   21.2521   53.6244 C   0  0  0  0  0  0  0  0  0  0  0  0
 10 11  1  0  0  0
 10 15  1  0  0  0
 10  1  1  0  0  0
 11 12  1  0  0  0
 11 16  2  0  0  0
 12 13  2  0  0  0
 13 14  1  0  0  0
 13 17  1  0  0  0
 14 15  2  0  0  0
  1  2  1  0  0  0
  1  6  1  0  0  0
  2  3  1  0  0  0
  2  4  1  0  0  0
  4  5  1  0  0  0
  4  7  1  0  0  0
  5  6  1  0  0  0
  5 20  1  0  0  0
 20 21  1  0  0  0
 21 22  1  0  0  0
 22 23  2  0  0  0
 22 24  1  0  0  0
 22 26  1  0  0  0
 26 27  1  0  0  0
 27 30  1  0  0  0
 27 28  1  0  0  0
 27 29  2  0  0  0
 30 31  1  0  0  0
 31 32  1  0  0  0
 32 33  1  0  0  0
 33 34  1  0  0  0
 33 35  1  0  0  0
 33 36  1  0  0  0
 17 18  1  0  0  0
 17 19  1  0  0  0
  3  8  1  0  0  0
  7  9  1  0  0  0
 24 25  1  0  0  0
M  CHG 1  28  -1
M  CHG 1  33   1
M  END
> <minimizedAffinity>
-8.42873

$$$$
4ZCS_CDC_A_801


 36 37  0  0  0  0  0  0  0  0999 V2000
   16.3271   21.1765   54.9158 C   0  0  0  0  0  0  0  0  0  0  0  0
   16.9323   19.9226   54.3551 C   0  0  0  0  0  0  0  0  0  0  0  0
   16.6892   18.9031   55.2858 O   0  0  0  0  0  0  0  0  0  0  0  0
   18.4051   20.3214   54.2942 C   0  0  0  0  0  0  0  0  0  0  0  0
   18.3555   21.7870   53.9117 C   0  0  0  0  0  0  0  0  0  0  0  0
   16.9762   22.2369   54.2679 O   0  0  0  0  0  0  0  0  0  0  0  0
   18.9823   20.2761   55.5682 O   0  0  0  0  0  0  0  0  0  0  0  0
   17.0081   19.1797   56.1591 H   0  0  0  0  0  0  0  0  0  0  0  0
   18.4843   20.8518   56.1694 H   0  0  0  0  0  0  0  0  0  0  0  0
   14.9337   21.2158   54.5918 N   0  0  0  0  0  0  0  0  0  0  0  0
   14.0733   20.7610   55.4727 C   0  0  0  0  0  0  0  0  0  0  0  0
   12.7069   20.8163   55.1873 N   0  0  0  0  0  0  0  0  0  0  0  0
   12.2229   21.2818   53.9584 C   0  0  0  0  0  0  0  0  0  0  0  0
   13.1341   21.7899   53.0419 C   0  0  0  0  0  0  0  0  0  0  0  0
   14.4904   21.7416   53.3675 C   0  0  0  0  0  0  0  0  0  0  0  0
   14.5082   20.2684   56.5190 O   0  0  0  0  0  0  0  0  0  0  0  0
   10.9263   21.3109   53.6835 N   0  0  0  0  0  0  0  0  0  0  0  0
   10.2776   20.9515   54.3311 H   0  0  0  0  0  0  0  0  0  0  0  0
   10.6121   21.6918   52.8319 H   0  0  0  0  0  0  0  0  0  0  0  0
   18.7396   21.9256   52.4653 C   0  0  0  0  0  0  0  0  0  0  0  0
   17.6459   22.4589   51.7330 O   0  0  0  0  0  0  0  0  0  0  0  0
   17.2786   21.7640   50.3848 P   0  0  0  0  0  0  0  0  0  0  0  0
   17.0048   20.3787   50.6321 O   0  0  0  0  0  0  0  0  0  0  0  0
   18.2703   22.1490   49.3309 O   0  0  0  0  0  0  0  0  0  0  0  0
   19.1530   21.8410   49.5896 H   0  0  0  0  0  0  0  0  0  0  0  0
   15.8737   22.2559   49.9699 O   0  0  0  0  0  0  0  0  0  0  0  0
   15.5133   23.5104   49.0258 P   0  0  0  0  0  0  0  0  0  0  0  0
   16.4060   24.6639   49.3519 O   0  0  0  0  0  0  0  0  0  0  0  0
   14.0622   23.8174   49.1465 O   0  0  0  0  0  0  0  0  0  0  0  0
   16.0986   23.0857   47.6828 O   0  0  0  0  0  0  0  0  0  0  0  0
   15.7122   23.8220   46.5074 C   0  0  0  0  0  0  0  0  0  0  0  0
   16.6314   23.3683   45.3703 C   0  0  0  0  0  0  0  0  0  0  0  0
   16.4360   24.1348   44.1002 N   0  0  0  0  0  0  0  0  0  0  0  0
   17.3410   25.2650   43.9294 C   0  0  0  0  0  0  0  0  0  0  0  0
   15.0647   24.6574   44.2006 C   0  0  0  0  0  0  0  0  0  0  0  0
   16.5466   23.2830   42.8662 C   0  0  0  0  0  0  0  0  0  0  0  0
 10 11  1  0  0  0
 10 15  1  0  0  0
 10  1  1  0  0  0
 11 12  1  0  0  0
 11 16  2  0  0  0
 12 13  2  0  0  0
 13 14  1  0  0  0
 13 17  1  0  0  0
 14 15  2  0  0  0
  1  2  1  0  0  0
  1  6  1  0  0  0
  2  3  1  0  0  0
  2  4  1  0  0  0
  4  5  1  0  0  0
  4  7  1  0  0  0
  5  6  1  0  0  0
  5 20  1  0  0  0
 20 21  1  0  0  0
 21 22  1  0  0  0
 22 23  2  0  0  0
 22 24  1  0  0  0
 22 26  1  0  0  0
 26 27  1  0  0  0
 27 30  1  0  0  0
 27 28  1  0  0  0
 27 29  2  0  0  0
 30 31  1  0  0  0
 31 32  1  0  0  0
 32 33  1  0  0  0
 33 34  1  0  0  0
 33 35  1  0  0  0
 33 36  1  0  0  0
 17 18  1  0  0  0
 17 19  1  0  0  0
  3  8  1  0  0  0
  7  9  1  0  0  0
 24 25  1  0  0  0
M  CHG 1  28  -1
M  CHG 1  33   1
M  END
> <minimizedAffinity>
-8.15253

$$$$
4ZCS_CDC_A_801


 36 37  0  0  0  0  0  0  0  0999 V2000
   11.8132   21.3784   53.6558 C   0  0  0  0  0  0  0  0  0  0  0  0
   12.4428   22.7389   53.7301 C   0  0  0  0  0  0  0  0  0  0  0  0
   11.4832   23.6010   54.2787 O   0  0  0  0  0  0  0  0  0  0  0  0
   12.6993   23.0138   52.2500 C   0  0  0  0  0  0  0  0  0  0  0  0
   13.0790   21.6528   51.7019 C   0  0  0  0  0  0  0  0  0  0  0  0
   12.5462   20.6703   52.6930 O   0  0  0  0  0  0  0  0  0  0  0  0
   11.5124   23.3719   51.6011 O   0  0  0  0  0  0  0  0  0  0  0  0
   10.6610   23.5363   53.7682 H   0  0  0  0  0  0  0  0  0  0  0  0
   10.8535   22.6704   51.7217 H   0  0  0  0  0  0  0  0  0  0  0  0
   11.9508   20.7232   54.9206 N   0  0  0  0  0  0  0  0  0  0  0  0
   10.8805   20.2051   55.4767 C   0  0  0  0  0  0  0  0  0  0  0  0
   10.9984   19.5368   56.6978 N   0  0  0  0  0  0  0  0  0  0  0  0
   12.2150   19.4573   57.3867 C   0  0  0  0  0  0  0  0  0  0  0  0
   13.3500   19.9799   56.7807 C   0  0  0  0  0  0  0  0  0  0  0  0
   13.2020   20.6206   55.5497 C   0  0  0  0  0  0  0  0  0  0  0  0
    9.7928   20.3548   54.9101 O   0  0  0  0  0  0  0  0  0  0  0  0
   12.3170   18.8417   58.5564 N   0  0  0  0  0  0  0  0  0  0  0  0
   11.5144   18.4701   58.9887 H   0  0  0  0  0  0  0  0  0  0  0  0
   13.1954   18.7562   58.9927 H   0  0  0  0  0  0  0  0  0  0  0  0
   14.5641   21.6173   51.4735 C   0  0  0  0  0  0  0  0  0  0  0  0
   15.2051   21.0529   52.6083 O   0  0  0  0  0  0  0  0  0  0  0  0
   16.6925   21.4503   52.8632 P   0  0  0  0  0  0  0  0  0  0  0  0
   17.5274   20.3073   52.6361 O   0  0  0  0  0  0  0  0  0  0  0  0
   16.8005   22.2051   54.1520 O   0  0  0  0  0  0  0  0  0  0  0  0
   16.5184   21.6357   54.8848 H   0  0  0  0  0  0  0  0  0  0  0  0
   17.1424   22.3599   51.6979 O   0  0  0  0  0  0  0  0  0  0  0  0
   18.5851   23.0456   51.4899 P   0  0  0  0  0  0  0  0  0  0  0  0
   19.5188   22.0761   50.8401 O   0  0  0  0  0  0  0  0  0  0  0  0
   19.0731   23.5725   52.7932 O   0  0  0  0  0  0  0  0  0  0  0  0
   18.3284   23.9969   50.3254 O   0  0  0  0  0  0  0  0  0  0  0  0
   16.9938   24.0753   49.7909 C   0  0  0  0  0  0  0  0  0  0  0  0
   16.9909   23.2963   48.4730 C   0  0  0  0  0  0  0  0  0  0  0  0
   15.6363   23.1828   47.8474 N   0  0  0  0  0  0  0  0  0  0  0  0
   15.5616   23.6637   46.4732 C   0  0  0  0  0  0  0  0  0  0  0  0
   14.7804   24.0414   48.6803 C   0  0  0  0  0  0  0  0  0  0  0  0
   15.0880   21.7829   47.8616 C   0  0  0  0  0  0  0  0  0  0  0  0
 10 11  1  0  0  0
 10 15  1  0  0  0
 10  1  1  0  0  0
 11 12  1  0  0  0
 11 16  2  0  0  0
 12 13  2  0  0  0
 13 14  1  0  0  0
 13 17  1  0  0  0
 14 15  2  0  0  0
  1  2  1  0  0  0
  1  6  1  0  0  0
  2  3  1  0  0  0
  2  4  1  0  0  0
  4  5  1  0  0  0
  4  7  1  0  0  0
  5  6  1  0  0  0
  5 20  1  0  0  0
 20 21  1  0  0  0
 21 22  1  0  0  0
 22 23  2  0  0  0
 22 24  1  0  0  0
 22 26  1  0  0  0
 26 27  1  0  0  0
 27 30  1  0  0  0
 27 28  1  0  0  0
 27 29  2  0  0  0
 30 31  1  0  0  0
 31 32  1  0  0  0
 32 33  1  0  0  0
 33 34  1  0  0  0
 33 35  1  0  0  0
 33 36  1  0  0  0
 17 18  1  0  0  0
 17 19  1  0  0  0
  3  8  1  0  0  0
  7  9  1  0  0  0
 24 25  1  0  0  0
M  CHG 1  28  -1
M  CHG 1  33   1
M  END
> <minimizedAffinity>
-7.86679

$$$$
4ZCS_CDC_A_801


 36 37  0  0  0  0  0  0  0  0999 V2000
   17.5716   21.1025   52.0085 C   0  0  0  0  0  0  0  0  0  0  0  0
   17.3143   22.0279   53.1619 C   0  0  0  0  0  0  0  0  0  0  0  0
   18.2986   21.7614   54.1236 O   0  0  0  0  0  0  0  0  0  0  0  0
   15.9276   21.5593   53.5973 C   0  0  0  0  0  0  0  0  0  0  0  0
   15.2468   21.2159   52.2876 C   0  0  0  0  0  0  0  0  0  0  0  0
   16.3588   21.0157   51.3104 O   0  0  0  0  0  0  0  0  0  0  0  0
   16.0134   20.3593   54.3120 O   0  0  0  0  0  0  0  0  0  0  0  0
   18.3031   20.8130   54.3275 H   0  0  0  0  0  0  0  0  0  0  0  0
   16.4585   19.6904   53.7685 H   0  0  0  0  0  0  0  0  0  0  0  0
   18.5623   21.6784   51.1511 N   0  0  0  0  0  0  0  0  0  0  0  0
   19.5396   20.9140   50.7224 C   0  0  0  0  0  0  0  0  0  0  0  0
   20.5011   21.4498   49.8622 N   0  0  0  0  0  0  0  0  0  0  0  0
   20.4964   22.8002   49.4915 C   0  0  0  0  0  0  0  0  0  0  0  0
   19.4442   23.5975   49.9225 C   0  0  0  0  0  0  0  0  0  0  0  0
   18.4872   23.0255   50.7620 C   0  0  0  0  0  0  0  0  0  0  0  0
   19.5914   19.7463   51.1228 O   0  0  0  0  0  0  0  0  0  0  0  0
   21.4244   23.3091   48.6931 N   0  0  0  0  0  0  0  0  0  0  0  0
   22.1717   22.7466   48.3857 H   0  0  0  0  0  0  0  0  0  0  0  0
   21.3662   24.2495   48.4076 H   0  0  0  0  0  0  0  0  0  0  0  0
   14.2631   22.3013   51.9513 C   0  0  0  0  0  0  0  0  0  0  0  0
   14.9545   23.4163   51.4074 O   0  0  0  0  0  0  0  0  0  0  0  0
   14.3721   24.0577   50.1094 P   0  0  0  0  0  0  0  0  0  0  0  0
   15.4208   24.7489   49.4183 O   0  0  0  0  0  0  0  0  0  0  0  0
   13.0949   24.7719   50.4275 O   0  0  0  0  0  0  0  0  0  0  0  0
   13.2734   25.4893   51.0555 H   0  0  0  0  0  0  0  0  0  0  0  0
   14.0847   22.9157   49.1090 O   0  0  0  0  0  0  0  0  0  0  0  0
   15.1024   22.2684   48.0411 P   0  0  0  0  0  0  0  0  0  0  0  0
   14.7890   20.8188   47.8556 O   0  0  0  0  0  0  0  0  0  0  0  0
   16.5022   22.5330   48.4709 O   0  0  0  0  0  0  0  0  0  0  0  0
   14.5867   22.8286   46.7193 O   0  0  0  0  0  0  0  0  0  0  0  0
   15.2610   23.9673   46.1523 C   0  0  0  0  0  0  0  0  0  0  0  0
   16.3686   23.4275   45.2437 C   0  0  0  0  0  0  0  0  0  0  0  0
   16.3686   24.0324   43.8751 N   0  0  0  0  0  0  0  0  0  0  0  0
   16.5877   23.0810   42.7924 C   0  0  0  0  0  0  0  0  0  0  0  0
   17.5002   24.9720   43.8951 C   0  0  0  0  0  0  0  0  0  0  0  0
   15.1089   24.7891   43.5574 C   0  0  0  0  0  0  0  0  0  0  0  0
 10 11  1  0  0  0
 10 15  1  0  0  0
 10  1  1  0  0  0
 11 12  1  0  0  0
 11 16  2  0  0  0
 12 13  2  0  0  0
 13 14  1  0  0  0
 13 17  1  0  0  0
 14 15  2  0  0  0
  1  2  1  0  0  0
  1  6  1  0  0  0
  2  3  1  0  0  0
  2  4  1  0  0  0
  4  5  1  0  0  0
  4  7  1  0  0  0
  5  6  1  0  0  0
  5 20  1  0  0  0
 20 21  1  0  0  0
 21 22  1  0  0  0
 22 23  2  0  0  0
 22 24  1  0  0  0
 22 26  1  0  0  0
 26 27  1  0  0  0
 27 30  1  0  0  0
 27 28  1  0  0  0
 27 29  2  0  0  0
 30 31  1  0  0  0
 31 32  1  0  0  0
 32 33  1  0  0  0
 33 34  1  0  0  0
 33 35  1  0  0  0
 33 36  1  0  0  0
 17 18  1  0  0  0
 17 19  1  0  0  0
  3  8  1  0  0  0
  7  9  1  0  0  0
 24 25  1  0  0  0
M  CHG 1  28  -1
M  CHG 1  33   1
M  END
> <minimizedAffinity>
-7.72413

$$$$
4ZCS_CDC_A_801


 36 37  0  0  0  0  0  0  0  0999 V2000
   11.9659   21.4345   53.5392 C   0  0  0  0  0  0  0  0  0  0  0  0
   12.6830   22.7527   53.5100 C   0  0  0  0  0  0  0  0  0  0  0  0
   11.8358   23.6893   54.1182 O   0  0  0  0  0  0  0  0  0  0  0  0
   12.8131   22.9713   52.0043 C   0  0  0  0  0  0  0  0  0  0  0  0
   13.0533   21.5746   51.4672 C   0  0  0  0  0  0  0  0  0  0  0  0
   12.5579   20.6552   52.5353 O   0  0  0  0  0  0  0  0  0  0  0  0
   11.5941   23.3886   51.4584 O   0  0  0  0  0  0  0  0  0  0  0  0
   10.9660   23.6648   53.6895 H   0  0  0  0  0  0  0  0  0  0  0  0
   10.9075   22.7346   51.6630 H   0  0  0  0  0  0  0  0  0  0  0  0
   12.1831   20.8052   54.8061 N   0  0  0  0  0  0  0  0  0  0  0  0
   11.1527   20.2848   55.4311 C   0  0  0  0  0  0  0  0  0  0  0  0
   11.3480   19.6414   56.6556 N   0  0  0  0  0  0  0  0  0  0  0  0
   12.6023   19.5898   57.2761 C   0  0  0  0  0  0  0  0  0  0  0  0
   13.6945   20.1146   56.5975 C   0  0  0  0  0  0  0  0  0  0  0  0
   13.4690   20.7299   55.3652 C   0  0  0  0  0  0  0  0  0  0  0  0
   10.0330   20.4104   54.9242 O   0  0  0  0  0  0  0  0  0  0  0  0
   12.7781   18.9979   58.4492 N   0  0  0  0  0  0  0  0  0  0  0  0
   12.0061   18.6248   58.9329 H   0  0  0  0  0  0  0  0  0  0  0  0
   13.6807   18.9314   58.8367 H   0  0  0  0  0  0  0  0  0  0  0  0
   14.5046   21.4368   51.1016 C   0  0  0  0  0  0  0  0  0  0  0  0
   14.7873   22.2455   49.9688 O   0  0  0  0  0  0  0  0  0  0  0  0
   15.9991   21.8317   49.0768 P   0  0  0  0  0  0  0  0  0  0  0  0
   15.6931   22.1247   47.7072 O   0  0  0  0  0  0  0  0  0  0  0  0
   16.4621   20.4595   49.4577 O   0  0  0  0  0  0  0  0  0  0  0  0
   15.7486   19.8218   49.2989 H   0  0  0  0  0  0  0  0  0  0  0  0
   17.1375   22.8451   49.3308 O   0  0  0  0  0  0  0  0  0  0  0  0
   18.4203   22.6593   50.2875 P   0  0  0  0  0  0  0  0  0  0  0  0
   19.3530   23.8145   50.1156 O   0  0  0  0  0  0  0  0  0  0  0  0
   19.0448   21.3348   50.0230 O   0  0  0  0  0  0  0  0  0  0  0  0
   17.8473   22.9761   51.6652 O   0  0  0  0  0  0  0  0  0  0  0  0
   18.6353   22.6449   52.8237 C   0  0  0  0  0  0  0  0  0  0  0  0
   17.7246   21.8711   53.7807 C   0  0  0  0  0  0  0  0  0  0  0  0
   18.1667   20.4617   54.0200 N   0  0  0  0  0  0  0  0  0  0  0  0
   18.3823   19.6806   52.8080 C   0  0  0  0  0  0  0  0  0  0  0  0
   17.0525   19.8547   54.7640 C   0  0  0  0  0  0  0  0  0  0  0  0
   19.4194   20.3614   54.8453 C   0  0  0  0  0  0  0  0  0  0  0  0
 10 11  1  0  0  0
 10 15  1  0  0  0
 10  1  1  0  0  0
 11 12  1  0  0  0
 11 16  2  0  0  0
 12 13  2  0  0  0
 13 14  1  0  0  0
 13 17  1  0  0  0
 14 15  2  0  0  0
  1  2  1  0  0  0
  1  6  1  0  0  0
  2  3  1  0  0  0
  2  4  1  0  0  0
  4  5  1  0  0  0
  4  7  1  0  0  0
  5  6  1  0  0  0
  5 20  1  0  0  0
 20 21  1  0  0  0
 21 22  1  0  0  0
 22 23  2  0  0  0
 22 24  1  0  0  0
 22 26  1  0  0  0
 26 27  1  0  0  0
 27 30  1  0  0  0
 27 28  1  0  0  0
 27 29  2  0  0  0
 30 31  1  0  0  0
 31 32  1  0  0  0
 32 33  1  0  0  0
 33 34  1  0  0  0
 33 35  1  0  0  0
 33 36  1  0  0  0
 17 18  1  0  0  0
 17 19  1  0  0  0
  3  8  1  0  0  0
  7  9  1  0  0  0
 24 25  1  0  0  0
M  CHG 1  28  -1
M  CHG 1  33   1
M  END
> <minimizedAffinity>
-7.64008

$$$$
4ZCS_CDC_A_801


 36 37  0  0  0  0  0  0  0  0999 V2000
   12.2663   21.5081   52.6438 C   0  0  0  0  0  0  0  0  0  0  0  0
   11.6174   21.3966   51.2950 C   0  0  0  0  0  0  0  0  0  0  0  0
   10.4112   20.7071   51.4804 O   0  0  0  0  0  0  0  0  0  0  0  0
   12.6582   20.5659   50.5475 C   0  0  0  0  0  0  0  0  0  0  0  0
   13.9747   21.0768   51.0976 C   0  0  0  0  0  0  0  0  0  0  0  0
   13.6281   21.7303   52.3955 O   0  0  0  0  0  0  0  0  0  0  0  0
   12.5802   19.2206   50.9246 O   0  0  0  0  0  0  0  0  0  0  0  0
   10.5838   19.8724   51.9435 H   0  0  0  0  0  0  0  0  0  0  0  0
   12.6923   19.1471   51.8853 H   0  0  0  0  0  0  0  0  0  0  0  0
   11.7285   22.6393   53.3361 N   0  0  0  0  0  0  0  0  0  0  0  0
   11.2011   22.4534   54.5237 C   0  0  0  0  0  0  0  0  0  0  0  0
   10.6960   23.5491   55.2279 N   0  0  0  0  0  0  0  0  0  0  0  0
   10.6721   24.8375   54.6798 C   0  0  0  0  0  0  0  0  0  0  0  0
   11.2583   25.0349   53.4363 C   0  0  0  0  0  0  0  0  0  0  0  0
   11.7749   23.9232   52.7693 C   0  0  0  0  0  0  0  0  0  0  0  0
   11.1424   21.3017   54.9670 O   0  0  0  0  0  0  0  0  0  0  0  0
   10.1708   25.8702   55.3430 N   0  0  0  0  0  0  0  0  0  0  0  0
    9.7545   25.7337   56.2247 H   0  0  0  0  0  0  0  0  0  0  0  0
   10.2147   26.7734   54.9539 H   0  0  0  0  0  0  0  0  0  0  0  0
   14.6220   21.9603   50.0684 C   0  0  0  0  0  0  0  0  0  0  0  0
   14.8567   23.2452   50.6262 O   0  0  0  0  0  0  0  0  0  0  0  0
   15.9852   24.1106   49.9838 P   0  0  0  0  0  0  0  0  0  0  0  0
   15.5622   25.4800   49.9496 O   0  0  0  0  0  0  0  0  0  0  0  0
   16.4758   23.4529   48.7312 O   0  0  0  0  0  0  0  0  0  0  0  0
   15.7495   23.3944   48.0909 H   0  0  0  0  0  0  0  0  0  0  0  0
   17.1442   24.2024   51.0016 O   0  0  0  0  0  0  0  0  0  0  0  0
   18.4930   23.3222   51.0338 P   0  0  0  0  0  0  0  0  0  0  0  0
   19.1117   23.3911   52.3926 O   0  0  0  0  0  0  0  0  0  0  0  0
   19.3959   23.7634   49.9364 O   0  0  0  0  0  0  0  0  0  0  0  0
   17.9507   21.8966   51.0547 O   0  0  0  0  0  0  0  0  0  0  0  0
   18.4844   20.9785   52.0269 C   0  0  0  0  0  0  0  0  0  0  0  0
   17.2999   20.4367   52.8314 C   0  0  0  0  0  0  0  0  0  0  0  0
   17.4709   20.5692   54.3120 N   0  0  0  0  0  0  0  0  0  0  0  0
   16.7491   19.5747   55.0965 C   0  0  0  0  0  0  0  0  0  0  0  0
   16.9105   21.8930   54.6235 C   0  0  0  0  0  0  0  0  0  0  0  0
   18.9078   20.5293   54.7526 C   0  0  0  0  0  0  0  0  0  0  0  0
 10 11  1  0  0  0
 10 15  1  0  0  0
 10  1  1  0  0  0
 11 12  1  0  0  0
 11 16  2  0  0  0
 12 13  2  0  0  0
 13 14  1  0  0  0
 13 17  1  0  0  0
 14 15  2  0  0  0
  1  2  1  0  0  0
  1  6  1  0  0  0
  2  3  1  0  0  0
  2  4  1  0  0  0
  4  5  1  0  0  0
  4  7  1  0  0  0
  5  6  1  0  0  0
  5 20  1  0  0  0
 20 21  1  0  0  0
 21 22  1  0  0  0
 22 23  2  0  0  0
 22 24  1  0  0  0
 22 26  1  0  0  0
 26 27  1  0  0  0
 27 30  1  0  0  0
 27 28  1  0  0  0
 27 29  2  0  0  0
 30 31  1  0  0  0
 31 32  1  0  0  0
 32 33  1  0  0  0
 33 34  1  0  0  0
 33 35  1  0  0  0
 33 36  1  0  0  0
 17 18  1  0  0  0
 17 19  1  0  0  0
  3  8  1  0  0  0
  7  9  1  0  0  0
 24 25  1  0  0  0
M  CHG 1  28  -1
M  CHG 1  33   1
M  END
> <minimizedAffinity>
-7.61875

$$$$
4ZCS_CDC_A_801


 36 37  0  0  0  0  0  0  0  0999 V2000
   11.1548   23.2993   53.4588 C   0  0  0  0  0  0  0  0  0  0  0  0
   11.5239   24.6758   53.9298 C   0  0  0  0  0  0  0  0  0  0  0  0
   10.7056   24.9610   55.0315 O   0  0  0  0  0  0  0  0  0  0  0  0
   11.1596   25.5036   52.6994 C   0  0  0  0  0  0  0  0  0  0  0  0
   11.5346   24.5972   51.5440 C   0  0  0  0  0  0  0  0  0  0  0  0
   11.5859   23.2227   52.1270 O   0  0  0  0  0  0  0  0  0  0  0  0
    9.7739   25.6801   52.6153 O   0  0  0  0  0  0  0  0  0  0  0  0
    9.7765   24.8261   54.7877 H   0  0  0  0  0  0  0  0  0  0  0  0
    9.3379   24.8137   52.6007 H   0  0  0  0  0  0  0  0  0  0  0  0
   11.8635   22.3274   54.2343 N   0  0  0  0  0  0  0  0  0  0  0  0
   11.2050   21.6570   55.1508 C   0  0  0  0  0  0  0  0  0  0  0  0
   11.8720   20.6841   55.8993 N   0  0  0  0  0  0  0  0  0  0  0  0
   13.2436   20.4438   55.7512 C   0  0  0  0  0  0  0  0  0  0  0  0
   13.9295   21.1335   54.7600 C   0  0  0  0  0  0  0  0  0  0  0  0
   13.2284   22.0819   54.0138 C   0  0  0  0  0  0  0  0  0  0  0  0
   10.0161   21.9341   55.3411 O   0  0  0  0  0  0  0  0  0  0  0  0
   13.8768   19.5353   56.4801 N   0  0  0  0  0  0  0  0  0  0  0  0
   13.3935   19.0446   57.1836 H   0  0  0  0  0  0  0  0  0  0  0  0
   14.8303   19.3513   56.3179 H   0  0  0  0  0  0  0  0  0  0  0  0
   12.8102   25.0981   50.9269 C   0  0  0  0  0  0  0  0  0  0  0  0
   13.6792   24.0025   50.6788 O   0  0  0  0  0  0  0  0  0  0  0  0
   14.8325   24.2207   49.6503 P   0  0  0  0  0  0  0  0  0  0  0  0
   15.7090   25.2436   50.1407 O   0  0  0  0  0  0  0  0  0  0  0  0
   14.2646   24.3280   48.2689 O   0  0  0  0  0  0  0  0  0  0  0  0
   13.6771   25.0983   48.2198 H   0  0  0  0  0  0  0  0  0  0  0  0
   15.7678   22.9929   49.7255 O   0  0  0  0  0  0  0  0  0  0  0  0
   15.3441   21.4438   49.8519 P   0  0  0  0  0  0  0  0  0  0  0  0
   16.4779   20.5708   49.4203 O   0  0  0  0  0  0  0  0  0  0  0  0
   14.0835   21.2142   49.0952 O   0  0  0  0  0  0  0  0  0  0  0  0
   15.3860   21.2171   51.3598 O   0  0  0  0  0  0  0  0  0  0  0  0
   16.5519   21.6542   52.0826 C   0  0  0  0  0  0  0  0  0  0  0  0
   17.0223   20.4722   52.9342 C   0  0  0  0  0  0  0  0  0  0  0  0
   18.1739   20.8011   53.8313 N   0  0  0  0  0  0  0  0  0  0  0  0
   19.3834   20.0297   53.5716 C   0  0  0  0  0  0  0  0  0  0  0  0
   17.6923   20.4583   55.1782 C   0  0  0  0  0  0  0  0  0  0  0  0
   18.5560   22.2549   53.8028 C   0  0  0  0  0  0  0  0  0  0  0  0
 10 11  1  0  0  0
 10 15  1  0  0  0
 10  1  1  0  0  0
 11 12  1  0  0  0
 11 16  2  0  0  0
 12 13  2  0  0  0
 13 14  1  0  0  0
 13 17  1  0  0  0
 14 15  2  0  0  0
  1  2  1  0  0  0
  1  6  1  0  0  0
  2  3  1  0  0  0
  2  4  1  0  0  0
  4  5  1  0  0  0
  4  7  1  0  0  0
  5  6  1  0  0  0
  5 20  1  0  0  0
 20 21  1  0  0  0
 21 22  1  0  0  0
 22 23  2  0  0  0
 22 24  1  0  0  0
 22 26  1  0  0  0
 26 27  1  0  0  0
 27 30  1  0  0  0
 27 28  1  0  0  0
 27 29  2  0  0  0
 30 31  1  0  0  0
 31 32  1  0  0  0
 32 33  1  0  0  0
 33 34  1  0  0  0
 33 35  1  0  0  0
 33 36  1  0  0  0
 17 18  1  0  0  0
 17 19  1  0  0  0
  3  8  1  0  0  0
  7  9  1  0  0  0
 24 25  1  0  0  0
M  CHG 1  28  -1
M  CHG 1  33   1
M  END
> <minimizedAffinity>
-7.52258

$$$$
