2Z4O_065_B_404


 42 46  0  0  0  0  0  0  0  0999 V2000
   15.1606   23.5120   18.0482 C   0  0  0  0  0  0  0  0  0  0  0  0
   14.0364   24.3234   18.3710 O   0  0  0  0  0  0  0  0  0  0  0  0
   13.7014   24.7471   17.5653 H   0  0  0  0  0  0  0  0  0  0  0  0
   16.3360   24.3347   17.5186 C   0  0  0  0  0  0  0  0  0  0  0  0
   17.5425   23.5110   17.5187 N   0  0  0  0  0  0  0  0  0  0  0  0
   18.2973   23.4520   16.0614 S   0  0  0  0  0  0  0  0  0  0  0  0
   17.2794   23.1433   15.0249 O   0  0  0  0  0  0  0  0  0  0  0  0
   19.3851   22.4268   16.1934 O   0  0  0  0  0  0  0  0  0  0  0  0
   20.3201   27.4513   15.3605 C   0  0  0  0  0  0  0  0  0  0  0  0
   21.1058   28.5741   15.3674 O   0  0  0  0  0  0  0  0  0  0  0  0
   22.1495   28.3263   16.2340 C   0  0  0  0  0  0  0  0  0  0  0  0
   22.0597   27.0434   16.7122 O   0  0  0  0  0  0  0  0  0  0  0  0
   20.8944   26.5194   16.2151 C   0  0  0  0  0  0  0  0  0  0  0  0
   20.2644   25.2996   16.4002 C   0  0  0  0  0  0  0  0  0  0  0  0
   19.0582   25.0016   15.7628 C   0  0  0  0  0  0  0  0  0  0  0  0
   18.4978   25.9386   14.9233 C   0  0  0  0  0  0  0  0  0  0  0  0
   19.1216   27.1608   14.7135 C   0  0  0  0  0  0  0  0  0  0  0  0
   18.4117   23.7227   18.6612 C   0  0  0  0  0  0  0  0  0  0  0  0
   18.1008   22.7758   19.8246 C   0  0  0  0  0  0  0  0  0  0  0  0
   18.0439   21.3257   19.3764 C   0  0  0  0  0  0  0  0  0  0  0  0
   19.1593   22.9178   20.9279 C   0  0  0  0  0  0  0  0  0  0  0  0
   14.7652   22.3801   17.1005 C   0  0  0  0  0  0  0  0  0  0  0  0
   13.8928   21.4777   17.8520 N   0  0  0  0  0  0  0  0  0  0  0  0
   14.1594   20.2483   18.2579 C   0  0  0  0  0  0  0  0  0  0  0  0
   15.2197   19.6759   18.0083 O   0  0  0  0  0  0  0  0  0  0  0  0
   13.0019   21.8274   18.0827 H   0  0  0  0  0  0  0  0  0  0  0  0
   13.1464   19.6783   18.9640 O   0  0  0  0  0  0  0  0  0  0  0  0
   13.5079   18.4817   19.6423 C   0  0  0  0  0  0  0  0  0  0  0  0
   12.9771   18.5969   21.0744 C   0  0  0  0  0  0  0  0  0  0  0  0
   11.5553   18.4296   20.9226 O   0  0  0  0  0  0  0  0  0  0  0  0
   11.3522   17.4692   19.8938 C   0  0  0  0  0  0  0  0  0  0  0  0
   10.3419   17.8988   18.9840 O   0  0  0  0  0  0  0  0  0  0  0  0
   10.9810   18.3456   17.8035 C   0  0  0  0  0  0  0  0  0  0  0  0
   12.2110   17.4274   17.6795 C   0  0  0  0  0  0  0  0  0  0  0  0
   12.6575   17.3159   19.1336 C   0  0  0  0  0  0  0  0  0  0  0  0
   14.0008   22.8614   15.8741 C   0  0  0  0  0  0  0  0  0  0  0  0
   12.1848   21.3185   14.9951 C   0  0  0  0  0  0  0  0  0  0  0  0
   11.7446   20.2302   14.2428 C   0  0  0  0  0  0  0  0  0  0  0  0
   12.6299   19.5224   13.4393 C   0  0  0  0  0  0  0  0  0  0  0  0
   13.9643   19.9240   13.4352 C   0  0  0  0  0  0  0  0  0  0  0  0
   14.4031   20.9884   14.2058 C   0  0  0  0  0  0  0  0  0  0  0  0
   13.5158   21.6993   15.0097 C   0  0  0  0  0  0  0  0  0  0  0  0
  9 17  1  0  0  0
  9 10  1  0  0  0
  9 13  2  0  0  0
 10 11  1  0  0  0
 11 12  1  0  0  0
 12 13  1  0  0  0
 13 14  1  0  0  0
 14 15  2  0  0  0
 15  6  1  0  0  0
 15 16  1  0  0  0
 16 17  2  0  0  0
  6  5  1  0  0  0
  6  7  2  0  0  0
  6  8  2  0  0  0
  5 18  1  0  0  0
  5  4  1  0  0  0
 18 19  1  0  0  0
 19 20  1  0  0  0
 19 21  1  0  0  0
  4  1  1  0  0  0
  1  2  1  0  0  0
  1 22  1  0  0  0
 22 36  1  0  0  0
 22 23  1  0  0  0
 23 24  1  0  0  0
 24 25  2  0  0  0
 24 27  1  0  0  0
 27 28  1  0  0  0
 28 29  1  0  0  0
 28 35  1  0  0  0
 29 30  1  0  0  0
 30 31  1  0  0  0
 31 32  1  0  0  0
 31 35  1  0  0  0
 32 33  1  0  0  0
 33 34  1  0  0  0
 34 35  1  0  0  0
 36 42  1  0  0  0
 37 42  1  0  0  0
 37 38  2  0  0  0
 38 39  1  0  0  0
 39 40  2  0  0  0
 40 41  1  0  0  0
 41 42  2  0  0  0
  2  3  1  0  0  0
 23 26  1  0  0  0
M  END
> <minimizedAffinity>
-10.45785

$$$$
2Z4O_065_B_404


 42 46  0  0  0  0  0  0  0  0999 V2000
   15.2584   23.0207   17.9231 C   0  0  0  0  0  0  0  0  0  0  0  0
   14.7732   24.2999   18.3166 O   0  0  0  0  0  0  0  0  0  0  0  0
   13.9107   24.1995   18.7491 H   0  0  0  0  0  0  0  0  0  0  0  0
   14.3655   22.3608   16.8715 C   0  0  0  0  0  0  0  0  0  0  0  0
   14.7204   22.8677   15.5481 N   0  0  0  0  0  0  0  0  0  0  0  0
   16.2254   22.4290   15.0589 S   0  0  0  0  0  0  0  0  0  0  0  0
   16.1802   22.1707   13.5970 O   0  0  0  0  0  0  0  0  0  0  0  0
   16.6077   21.2407   15.8916 O   0  0  0  0  0  0  0  0  0  0  0  0
   19.1358   25.7438   16.1169 C   0  0  0  0  0  0  0  0  0  0  0  0
   20.1106   26.5546   16.6368 O   0  0  0  0  0  0  0  0  0  0  0  0
   20.8421   25.7859   17.5176 C   0  0  0  0  0  0  0  0  0  0  0  0
   20.3782   24.4948   17.5010 O   0  0  0  0  0  0  0  0  0  0  0  0
   19.2840   24.4810   16.6752 C   0  0  0  0  0  0  0  0  0  0  0  0
   18.3908   23.4820   16.3240 C   0  0  0  0  0  0  0  0  0  0  0  0
   17.3378   23.7277   15.4402 C   0  0  0  0  0  0  0  0  0  0  0  0
   17.2003   24.9870   14.8999 C   0  0  0  0  0  0  0  0  0  0  0  0
   18.0939   25.9971   15.2281 C   0  0  0  0  0  0  0  0  0  0  0  0
   13.6755   22.7226   14.5516 C   0  0  0  0  0  0  0  0  0  0  0  0
   12.8768   21.4258   14.7162 C   0  0  0  0  0  0  0  0  0  0  0  0
   11.3863   21.6497   14.5287 C   0  0  0  0  0  0  0  0  0  0  0  0
   13.3555   20.3707   13.7084 C   0  0  0  0  0  0  0  0  0  0  0  0
   15.4896   22.1247   19.1394 C   0  0  0  0  0  0  0  0  0  0  0  0
   14.4558   21.0899   19.1115 N   0  0  0  0  0  0  0  0  0  0  0  0
   14.5767   19.8379   18.7054 C   0  0  0  0  0  0  0  0  0  0  0  0
   15.6231   19.3807   18.2471 O   0  0  0  0  0  0  0  0  0  0  0  0
   13.5648   21.3578   19.4332 H   0  0  0  0  0  0  0  0  0  0  0  0
   13.4327   19.1133   18.8325 O   0  0  0  0  0  0  0  0  0  0  0  0
   13.5191   18.0437   19.7658 C   0  0  0  0  0  0  0  0  0  0  0  0
   12.9386   18.5516   21.0891 C   0  0  0  0  0  0  0  0  0  0  0  0
   11.5222   18.6075   20.8376 O   0  0  0  0  0  0  0  0  0  0  0  0
   11.1988   17.5013   20.0048 C   0  0  0  0  0  0  0  0  0  0  0  0
   10.3434   17.8979   18.9352 O   0  0  0  0  0  0  0  0  0  0  0  0
   11.1230   17.9647   17.7565 C   0  0  0  0  0  0  0  0  0  0  0  0
   12.1598   16.8404   17.9354 C   0  0  0  0  0  0  0  0  0  0  0  0
   12.4923   16.9638   19.4188 C   0  0  0  0  0  0  0  0  0  0  0  0
   16.8474   21.4345   19.1289 C   0  0  0  0  0  0  0  0  0  0  0  0
   19.2641   21.9092   19.7497 C   0  0  0  0  0  0  0  0  0  0  0  0
   20.2576   22.6834   20.3476 C   0  0  0  0  0  0  0  0  0  0  0  0
   19.9494   23.9147   20.9128 C   0  0  0  0  0  0  0  0  0  0  0  0
   18.6191   24.3280   20.8802 C   0  0  0  0  0  0  0  0  0  0  0  0
   17.6301   23.5429   20.3099 C   0  0  0  0  0  0  0  0  0  0  0  0
   17.9388   22.3098   19.7417 C   0  0  0  0  0  0  0  0  0  0  0  0
  9 17  1  0  0  0
  9 10  1  0  0  0
  9 13  2  0  0  0
 10 11  1  0  0  0
 11 12  1  0  0  0
 12 13  1  0  0  0
 13 14  1  0  0  0
 14 15  2  0  0  0
 15  6  1  0  0  0
 15 16  1  0  0  0
 16 17  2  0  0  0
  6  5  1  0  0  0
  6  7  2  0  0  0
  6  8  2  0  0  0
  5 18  1  0  0  0
  5  4  1  0  0  0
 18 19  1  0  0  0
 19 20  1  0  0  0
 19 21  1  0  0  0
  4  1  1  0  0  0
  1  2  1  0  0  0
  1 22  1  0  0  0
 22 36  1  0  0  0
 22 23  1  0  0  0
 23 24  1  0  0  0
 24 25  2  0  0  0
 24 27  1  0  0  0
 27 28  1  0  0  0
 28 29  1  0  0  0
 28 35  1  0  0  0
 29 30  1  0  0  0
 30 31  1  0  0  0
 31 32  1  0  0  0
 31 35  1  0  0  0
 32 33  1  0  0  0
 33 34  1  0  0  0
 34 35  1  0  0  0
 36 42  1  0  0  0
 37 42  1  0  0  0
 37 38  2  0  0  0
 38 39  1  0  0  0
 39 40  2  0  0  0
 40 41  1  0  0  0
 41 42  2  0  0  0
  2  3  1  0  0  0
 23 26  1  0  0  0
M  END
> <minimizedAffinity>
-9.90944

$$$$
2Z4O_065_B_404


 42 46  0  0  0  0  0  0  0  0999 V2000
   17.2270   21.3534   17.1913 C   0  0  0  0  0  0  0  0  0  0  0  0
   18.0342   20.1811   17.2120 O   0  0  0  0  0  0  0  0  0  0  0  0
   18.8332   20.3479   17.7361 H   0  0  0  0  0  0  0  0  0  0  0  0
   17.9205   22.5220   16.4898 C   0  0  0  0  0  0  0  0  0  0  0  0
   16.9117   23.4187   15.9308 N   0  0  0  0  0  0  0  0  0  0  0  0
   17.1450   24.9960   16.3239 S   0  0  0  0  0  0  0  0  0  0  0  0
   16.7010   25.1941   17.7272 O   0  0  0  0  0  0  0  0  0  0  0  0
   16.3847   25.7984   15.3091 O   0  0  0  0  0  0  0  0  0  0  0  0
   21.5486   26.0082   15.9221 C   0  0  0  0  0  0  0  0  0  0  0  0
   22.8541   26.3932   16.0813 O   0  0  0  0  0  0  0  0  0  0  0  0
   23.0325   26.6564   17.4232 C   0  0  0  0  0  0  0  0  0  0  0  0
   21.8769   26.3759   18.1077 O   0  0  0  0  0  0  0  0  0  0  0  0
   20.9393   26.0281   17.1699 C   0  0  0  0  0  0  0  0  0  0  0  0
   19.5969   25.7003   17.2674 C   0  0  0  0  0  0  0  0  0  0  0  0
   18.8456   25.3731   16.1367 C   0  0  0  0  0  0  0  0  0  0  0  0
   19.4626   25.3641   14.9054 C   0  0  0  0  0  0  0  0  0  0  0  0
   20.8103   25.6754   14.7892 C   0  0  0  0  0  0  0  0  0  0  0  0
   16.5915   23.1655   14.5383 C   0  0  0  0  0  0  0  0  0  0  0  0
   15.5560   22.0504   14.3626 C   0  0  0  0  0  0  0  0  0  0  0  0
   14.2085   22.4290   14.9523 C   0  0  0  0  0  0  0  0  0  0  0  0
   15.3756   21.7170   12.8745 C   0  0  0  0  0  0  0  0  0  0  0  0
   16.7503   21.7153   18.5975 C   0  0  0  0  0  0  0  0  0  0  0  0
   15.4939   21.0000   18.8209 N   0  0  0  0  0  0  0  0  0  0  0  0
   14.2894   21.5169   18.9924 C   0  0  0  0  0  0  0  0  0  0  0  0
   14.0784   22.7289   19.0183 O   0  0  0  0  0  0  0  0  0  0  0  0
   15.5523   20.0176   18.8466 H   0  0  0  0  0  0  0  0  0  0  0  0
   13.3146   20.5814   19.1487 O   0  0  0  0  0  0  0  0  0  0  0  0
   13.7987   19.2758   19.4381 C   0  0  0  0  0  0  0  0  0  0  0  0
   13.3101   18.9150   20.8442 C   0  0  0  0  0  0  0  0  0  0  0  0
   11.9029   18.6720   20.6613 O   0  0  0  0  0  0  0  0  0  0  0  0
   11.7456   18.0436   19.3955 C   0  0  0  0  0  0  0  0  0  0  0  0
   10.6718   18.6292   18.6627 O   0  0  0  0  0  0  0  0  0  0  0  0
   11.2297   19.4602   17.6627 C   0  0  0  0  0  0  0  0  0  0  0  0
   12.5274   18.7347   17.2615 C   0  0  0  0  0  0  0  0  0  0  0  0
   13.0319   18.2401   18.6132 C   0  0  0  0  0  0  0  0  0  0  0  0
   17.7284   21.3017   19.6895 C   0  0  0  0  0  0  0  0  0  0  0  0
   20.0139   22.4084   19.6366 C   0  0  0  0  0  0  0  0  0  0  0  0
   20.9099   23.4126   20.0013 C   0  0  0  0  0  0  0  0  0  0  0  0
   20.4845   24.4993   20.7554 C   0  0  0  0  0  0  0  0  0  0  0  0
   19.1481   24.5318   21.1487 C   0  0  0  0  0  0  0  0  0  0  0  0
   18.2675   23.5179   20.8081 C   0  0  0  0  0  0  0  0  0  0  0  0
   18.6930   22.4296   20.0507 C   0  0  0  0  0  0  0  0  0  0  0  0
  9 17  1  0  0  0
  9 10  1  0  0  0
  9 13  2  0  0  0
 10 11  1  0  0  0
 11 12  1  0  0  0
 12 13  1  0  0  0
 13 14  1  0  0  0
 14 15  2  0  0  0
 15  6  1  0  0  0
 15 16  1  0  0  0
 16 17  2  0  0  0
  6  5  1  0  0  0
  6  7  2  0  0  0
  6  8  2  0  0  0
  5 18  1  0  0  0
  5  4  1  0  0  0
 18 19  1  0  0  0
 19 20  1  0  0  0
 19 21  1  0  0  0
  4  1  1  0  0  0
  1  2  1  0  0  0
  1 22  1  0  0  0
 22 36  1  0  0  0
 22 23  1  0  0  0
 23 24  1  0  0  0
 24 25  2  0  0  0
 24 27  1  0  0  0
 27 28  1  0  0  0
 28 29  1  0  0  0
 28 35  1  0  0  0
 29 30  1  0  0  0
 30 31  1  0  0  0
 31 32  1  0  0  0
 31 35  1  0  0  0
 32 33  1  0  0  0
 33 34  1  0  0  0
 34 35  1  0  0  0
 36 42  1  0  0  0
 37 42  1  0  0  0
 37 38  2  0  0  0
 38 39  1  0  0  0
 39 40  2  0  0  0
 40 41  1  0  0  0
 41 42  2  0  0  0
  2  3  1  0  0  0
 23 26  1  0  0  0
M  END
> <minimizedAffinity>
-9.88278

$$$$
2Z4O_065_B_404


 42 46  0  0  0  0  0  0  0  0999 V2000
   16.1939   24.3075   18.0888 C   0  0  0  0  0  0  0  0  0  0  0  0
   15.7469   25.4960   18.7322 O   0  0  0  0  0  0  0  0  0  0  0  0
   15.7849   25.3767   19.6941 H   0  0  0  0  0  0  0  0  0  0  0  0
   15.2794   23.1153   18.3736 C   0  0  0  0  0  0  0  0  0  0  0  0
   15.7110   21.9719   17.5733 N   0  0  0  0  0  0  0  0  0  0  0  0
   16.3418   20.7463   18.4659 S   0  0  0  0  0  0  0  0  0  0  0  0
   16.7577   21.2976   19.7808 O   0  0  0  0  0  0  0  0  0  0  0  0
   17.4595   20.1653   17.6505 O   0  0  0  0  0  0  0  0  0  0  0  0
   13.1319   17.5883   19.0144 C   0  0  0  0  0  0  0  0  0  0  0  0
   12.0292   16.8417   19.3379 O   0  0  0  0  0  0  0  0  0  0  0  0
   11.1401   17.6913   19.9618 C   0  0  0  0  0  0  0  0  0  0  0  0
   11.6462   18.9667   19.9696 O   0  0  0  0  0  0  0  0  0  0  0  0
   12.9056   18.8929   19.4331 C   0  0  0  0  0  0  0  0  0  0  0  0
   13.8964   19.8418   19.2403 C   0  0  0  0  0  0  0  0  0  0  0  0
   15.1191   19.5059   18.6554 C   0  0  0  0  0  0  0  0  0  0  0  0
   15.3309   18.2064   18.2513 C   0  0  0  0  0  0  0  0  0  0  0  0
   14.3447   17.2447   18.4225 C   0  0  0  0  0  0  0  0  0  0  0  0
   14.7688   21.5714   16.5449 C   0  0  0  0  0  0  0  0  0  0  0  0
   14.8160   22.4803   15.3127 C   0  0  0  0  0  0  0  0  0  0  0  0
   15.2470   21.7256   14.0670 C   0  0  0  0  0  0  0  0  0  0  0  0
   13.4404   23.1152   15.0628 C   0  0  0  0  0  0  0  0  0  0  0  0
   17.6555   24.0173   18.4281 C   0  0  0  0  0  0  0  0  0  0  0  0
   18.4633   25.0207   17.7347 N   0  0  0  0  0  0  0  0  0  0  0  0
   19.3365   24.8235   16.7622 C   0  0  0  0  0  0  0  0  0  0  0  0
   19.6109   23.7066   16.3249 O   0  0  0  0  0  0  0  0  0  0  0  0
   18.3423   25.9530   18.0271 H   0  0  0  0  0  0  0  0  0  0  0  0
   19.9068   25.9702   16.3042 O   0  0  0  0  0  0  0  0  0  0  0  0
   20.1278   25.9924   14.8995 C   0  0  0  0  0  0  0  0  0  0  0  0
   19.1388   26.9985   14.3031 C   0  0  0  0  0  0  0  0  0  0  0  0
   19.6715   28.2746   14.7038 O   0  0  0  0  0  0  0  0  0  0  0  0
   21.0889   28.1724   14.6561 C   0  0  0  0  0  0  0  0  0  0  0  0
   21.6829   28.7354   15.8236 O   0  0  0  0  0  0  0  0  0  0  0  0
   22.0968   27.6705   16.6580 C   0  0  0  0  0  0  0  0  0  0  0  0
   22.5199   26.5692   15.6684 C   0  0  0  0  0  0  0  0  0  0  0  0
   21.4491   26.6989   14.5900 C   0  0  0  0  0  0  0  0  0  0  0  0
   17.9585   24.1158   19.9176 C   0  0  0  0  0  0  0  0  0  0  0  0
   20.0574   25.0750   20.9786 C   0  0  0  0  0  0  0  0  0  0  0  0
   21.4337   25.0907   21.2009 C   0  0  0  0  0  0  0  0  0  0  0  0
   22.2447   24.0888   20.6820 C   0  0  0  0  0  0  0  0  0  0  0  0
   21.6373   23.0936   19.9189 C   0  0  0  0  0  0  0  0  0  0  0  0
   20.2731   23.0971   19.6769 C   0  0  0  0  0  0  0  0  0  0  0  0
   19.4598   24.0999   20.1984 C   0  0  0  0  0  0  0  0  0  0  0  0
  9 17  1  0  0  0
  9 10  1  0  0  0
  9 13  2  0  0  0
 10 11  1  0  0  0
 11 12  1  0  0  0
 12 13  1  0  0  0
 13 14  1  0  0  0
 14 15  2  0  0  0
 15  6  1  0  0  0
 15 16  1  0  0  0
 16 17  2  0  0  0
  6  5  1  0  0  0
  6  7  2  0  0  0
  6  8  2  0  0  0
  5 18  1  0  0  0
  5  4  1  0  0  0
 18 19  1  0  0  0
 19 20  1  0  0  0
 19 21  1  0  0  0
  4  1  1  0  0  0
  1  2  1  0  0  0
  1 22  1  0  0  0
 22 36  1  0  0  0
 22 23  1  0  0  0
 23 24  1  0  0  0
 24 25  2  0  0  0
 24 27  1  0  0  0
 27 28  1  0  0  0
 28 29  1  0  0  0
 28 35  1  0  0  0
 29 30  1  0  0  0
 30 31  1  0  0  0
 31 32  1  0  0  0
 31 35  1  0  0  0
 32 33  1  0  0  0
 33 34  1  0  0  0
 34 35  1  0  0  0
 36 42  1  0  0  0
 37 42  1  0  0  0
 37 38  2  0  0  0
 38 39  1  0  0  0
 39 40  2  0  0  0
 40 41  1  0  0  0
 41 42  2  0  0  0
  2  3  1  0  0  0
 23 26  1  0  0  0
M  END
> <minimizedAffinity>
-9.77357

$$$$
2Z4O_065_B_404


 42 46  0  0  0  0  0  0  0  0999 V2000
   15.8447   22.3783   18.9573 C   0  0  0  0  0  0  0  0  0  0  0  0
   15.7206   23.7953   19.0145 O   0  0  0  0  0  0  0  0  0  0  0  0
   16.2896   24.1972   18.3395 H   0  0  0  0  0  0  0  0  0  0  0  0
   17.2577   21.9060   19.3021 C   0  0  0  0  0  0  0  0  0  0  0  0
   18.2094   22.9770   19.0162 N   0  0  0  0  0  0  0  0  0  0  0  0
   18.9733   23.5504   20.3520 S   0  0  0  0  0  0  0  0  0  0  0  0
   19.2793   22.4001   21.2401 O   0  0  0  0  0  0  0  0  0  0  0  0
   18.0568   24.5761   20.9519 O   0  0  0  0  0  0  0  0  0  0  0  0
   22.8104   25.6263   19.1089 C   0  0  0  0  0  0  0  0  0  0  0  0
   24.0964   26.0539   18.9057 O   0  0  0  0  0  0  0  0  0  0  0  0
   24.9249   25.1272   19.5029 C   0  0  0  0  0  0  0  0  0  0  0  0
   24.1756   24.0978   20.0142 O   0  0  0  0  0  0  0  0  0  0  0  0
   22.8609   24.4346   19.8202 C   0  0  0  0  0  0  0  0  0  0  0  0
   21.6747   23.8129   20.1746 C   0  0  0  0  0  0  0  0  0  0  0  0
   20.4370   24.3718   19.8496 C   0  0  0  0  0  0  0  0  0  0  0  0
   20.4034   25.5574   19.1496 C   0  0  0  0  0  0  0  0  0  0  0  0
   21.5812   26.1879   18.7726 C   0  0  0  0  0  0  0  0  0  0  0  0
   19.0635   22.7284   17.8698 C   0  0  0  0  0  0  0  0  0  0  0  0
   18.6080   23.4841   16.6176 C   0  0  0  0  0  0  0  0  0  0  0  0
   17.8754   24.7685   16.9650 C   0  0  0  0  0  0  0  0  0  0  0  0
   19.8130   23.8201   15.7270 C   0  0  0  0  0  0  0  0  0  0  0  0
   15.3604   21.8399   17.6115 C   0  0  0  0  0  0  0  0  0  0  0  0
   14.3460   20.8250   17.8964 N   0  0  0  0  0  0  0  0  0  0  0  0
   14.5303   19.5304   18.0894 C   0  0  0  0  0  0  0  0  0  0  0  0
   15.6347   18.9929   18.0151 O   0  0  0  0  0  0  0  0  0  0  0  0
   13.4162   21.1440   17.9508 H   0  0  0  0  0  0  0  0  0  0  0  0
   13.3829   18.8540   18.3644 O   0  0  0  0  0  0  0  0  0  0  0  0
   13.5094   17.8845   19.3972 C   0  0  0  0  0  0  0  0  0  0  0  0
   13.1583   18.5812   20.7153 C   0  0  0  0  0  0  0  0  0  0  0  0
   11.7300   18.7457   20.6410 O   0  0  0  0  0  0  0  0  0  0  0  0
   11.2073   17.5945   19.9904 C   0  0  0  0  0  0  0  0  0  0  0  0
   10.2486   17.9570   18.9992 O   0  0  0  0  0  0  0  0  0  0  0  0
   10.8624   17.8254   17.7314 C   0  0  0  0  0  0  0  0  0  0  0  0
   11.8195   16.6319   17.9068 C   0  0  0  0  0  0  0  0  0  0  0  0
   12.3607   16.8775   19.3114 C   0  0  0  0  0  0  0  0  0  0  0  0
   14.7245   22.9071   16.7300 C   0  0  0  0  0  0  0  0  0  0  0  0
   15.6712   22.0521   14.5336 C   0  0  0  0  0  0  0  0  0  0  0  0
   15.5450   21.6674   13.1995 C   0  0  0  0  0  0  0  0  0  0  0  0
   14.2950   21.6127   12.5952 C   0  0  0  0  0  0  0  0  0  0  0  0
   13.1889   21.9775   13.3601 C   0  0  0  0  0  0  0  0  0  0  0  0
   13.3216   22.3862   14.6773 C   0  0  0  0  0  0  0  0  0  0  0  0
   14.5739   22.4393   15.2838 C   0  0  0  0  0  0  0  0  0  0  0  0
  9 17  1  0  0  0
  9 10  1  0  0  0
  9 13  2  0  0  0
 10 11  1  0  0  0
 11 12  1  0  0  0
 12 13  1  0  0  0
 13 14  1  0  0  0
 14 15  2  0  0  0
 15  6  1  0  0  0
 15 16  1  0  0  0
 16 17  2  0  0  0
  6  5  1  0  0  0
  6  7  2  0  0  0
  6  8  2  0  0  0
  5 18  1  0  0  0
  5  4  1  0  0  0
 18 19  1  0  0  0
 19 20  1  0  0  0
 19 21  1  0  0  0
  4  1  1  0  0  0
  1  2  1  0  0  0
  1 22  1  0  0  0
 22 36  1  0  0  0
 22 23  1  0  0  0
 23 24  1  0  0  0
 24 25  2  0  0  0
 24 27  1  0  0  0
 27 28  1  0  0  0
 28 29  1  0  0  0
 28 35  1  0  0  0
 29 30  1  0  0  0
 30 31  1  0  0  0
 31 32  1  0  0  0
 31 35  1  0  0  0
 32 33  1  0  0  0
 33 34  1  0  0  0
 34 35  1  0  0  0
 36 42  1  0  0  0
 37 42  1  0  0  0
 37 38  2  0  0  0
 38 39  1  0  0  0
 39 40  2  0  0  0
 40 41  1  0  0  0
 41 42  2  0  0  0
  2  3  1  0  0  0
 23 26  1  0  0  0
M  END
> <minimizedAffinity>
-9.59413

$$$$
2Z4O_065_B_404


 42 46  0  0  0  0  0  0  0  0999 V2000
   16.9529   23.6622   15.9056 C   0  0  0  0  0  0  0  0  0  0  0  0
   17.2989   23.1476   14.6243 O   0  0  0  0  0  0  0  0  0  0  0  0
   16.7353   23.5561   13.9488 H   0  0  0  0  0  0  0  0  0  0  0  0
   15.5247   23.2955   16.3109 C   0  0  0  0  0  0  0  0  0  0  0  0
   15.4633   21.8719   16.6332 N   0  0  0  0  0  0  0  0  0  0  0  0
   15.2090   21.5699   18.2272 S   0  0  0  0  0  0  0  0  0  0  0  0
   14.4450   22.7084   18.7981 O   0  0  0  0  0  0  0  0  0  0  0  0
   16.5643   21.3594   18.8360 O   0  0  0  0  0  0  0  0  0  0  0  0
   12.8289   17.7301   18.6380 C   0  0  0  0  0  0  0  0  0  0  0  0
   11.8845   16.7514   18.8059 O   0  0  0  0  0  0  0  0  0  0  0  0
   10.6597   17.3828   18.8592 C   0  0  0  0  0  0  0  0  0  0  0  0
   10.8242   18.7303   18.6596 O   0  0  0  0  0  0  0  0  0  0  0  0
   12.1744   18.9535   18.5789 C   0  0  0  0  0  0  0  0  0  0  0  0
   12.9237   20.1102   18.4381 C   0  0  0  0  0  0  0  0  0  0  0  0
   14.3181   20.0688   18.3766 C   0  0  0  0  0  0  0  0  0  0  0  0
   14.9530   18.8484   18.4431 C   0  0  0  0  0  0  0  0  0  0  0  0
   14.2189   17.6771   18.5693 C   0  0  0  0  0  0  0  0  0  0  0  0
   14.6614   21.0844   15.7153 C   0  0  0  0  0  0  0  0  0  0  0  0
   14.0195   21.9326   14.6130 C   0  0  0  0  0  0  0  0  0  0  0  0
   14.4566   21.4883   13.2279 C   0  0  0  0  0  0  0  0  0  0  0  0
   12.4884   21.8578   14.7030 C   0  0  0  0  0  0  0  0  0  0  0  0
   17.2141   25.1662   15.9806 C   0  0  0  0  0  0  0  0  0  0  0  0
   18.3038   25.3643   16.9363 N   0  0  0  0  0  0  0  0  0  0  0  0
   18.3187   25.0525   18.2207 C   0  0  0  0  0  0  0  0  0  0  0  0
   17.3514   24.5620   18.8019 O   0  0  0  0  0  0  0  0  0  0  0  0
   19.1229   25.7789   16.5807 H   0  0  0  0  0  0  0  0  0  0  0  0
   19.4983   25.3377   18.8347 O   0  0  0  0  0  0  0  0  0  0  0  0
   20.6073   24.5954   18.3432 C   0  0  0  0  0  0  0  0  0  0  0  0
   21.7251   25.5990   18.0441 C   0  0  0  0  0  0  0  0  0  0  0  0
   22.1886   25.9881   19.3505 O   0  0  0  0  0  0  0  0  0  0  0  0
   22.1253   24.8349   20.1800 C   0  0  0  0  0  0  0  0  0  0  0  0
   21.5437   25.1446   21.4444 O   0  0  0  0  0  0  0  0  0  0  0  0
   20.2181   24.6503   21.4465 C   0  0  0  0  0  0  0  0  0  0  0  0
   20.2995   23.3722   20.5915 C   0  0  0  0  0  0  0  0  0  0  0  0
   21.2534   23.8055   19.4832 C   0  0  0  0  0  0  0  0  0  0  0  0
   17.6398   25.7702   14.6487 C   0  0  0  0  0  0  0  0  0  0  0  0
   20.1197   25.2215   14.6279 C   0  0  0  0  0  0  0  0  0  0  0  0
   21.4658   25.5817   14.6724 C   0  0  0  0  0  0  0  0  0  0  0  0
   21.8390   26.9200   14.6866 C   0  0  0  0  0  0  0  0  0  0  0  0
   20.8249   27.8756   14.6798 C   0  0  0  0  0  0  0  0  0  0  0  0
   19.4877   27.5132   14.6640 C   0  0  0  0  0  0  0  0  0  0  0  0
   19.1134   26.1722   14.6477 C   0  0  0  0  0  0  0  0  0  0  0  0
  9 17  1  0  0  0
  9 10  1  0  0  0
  9 13  2  0  0  0
 10 11  1  0  0  0
 11 12  1  0  0  0
 12 13  1  0  0  0
 13 14  1  0  0  0
 14 15  2  0  0  0
 15  6  1  0  0  0
 15 16  1  0  0  0
 16 17  2  0  0  0
  6  5  1  0  0  0
  6  7  2  0  0  0
  6  8  2  0  0  0
  5 18  1  0  0  0
  5  4  1  0  0  0
 18 19  1  0  0  0
 19 20  1  0  0  0
 19 21  1  0  0  0
  4  1  1  0  0  0
  1  2  1  0  0  0
  1 22  1  0  0  0
 22 36  1  0  0  0
 22 23  1  0  0  0
 23 24  1  0  0  0
 24 25  2  0  0  0
 24 27  1  0  0  0
 27 28  1  0  0  0
 28 29  1  0  0  0
 28 35  1  0  0  0
 29 30  1  0  0  0
 30 31  1  0  0  0
 31 32  1  0  0  0
 31 35  1  0  0  0
 32 33  1  0  0  0
 33 34  1  0  0  0
 34 35  1  0  0  0
 36 42  1  0  0  0
 37 42  1  0  0  0
 37 38  2  0  0  0
 38 39  1  0  0  0
 39 40  2  0  0  0
 40 41  1  0  0  0
 41 42  2  0  0  0
  2  3  1  0  0  0
 23 26  1  0  0  0
M  END
> <minimizedAffinity>
-9.50519

$$$$
2Z4O_065_B_404


 42 46  0  0  0  0  0  0  0  0999 V2000
   16.1958   23.5257   16.1701 C   0  0  0  0  0  0  0  0  0  0  0  0
   16.0425   24.8469   15.6628 O   0  0  0  0  0  0  0  0  0  0  0  0
   15.7673   25.4388   16.3803 H   0  0  0  0  0  0  0  0  0  0  0  0
   14.8757   22.9427   16.6763 C   0  0  0  0  0  0  0  0  0  0  0  0
   14.9555   21.4840   16.6670 N   0  0  0  0  0  0  0  0  0  0  0  0
   14.5439   20.7947   18.0995 S   0  0  0  0  0  0  0  0  0  0  0  0
   14.2416   21.8810   19.0661 O   0  0  0  0  0  0  0  0  0  0  0  0
   15.6958   19.9153   18.4885 O   0  0  0  0  0  0  0  0  0  0  0  0
   10.9879   18.0580   17.4339 C   0  0  0  0  0  0  0  0  0  0  0  0
   10.1136   17.0185   17.2523 O   0  0  0  0  0  0  0  0  0  0  0  0
   10.8205   15.8568   17.4818 C   0  0  0  0  0  0  0  0  0  0  0  0
   12.1010   16.1627   17.8684 O   0  0  0  0  0  0  0  0  0  0  0  0
   12.2219   17.5257   17.7840 C   0  0  0  0  0  0  0  0  0  0  0  0
   13.2882   18.3842   17.9964 C   0  0  0  0  0  0  0  0  0  0  0  0
   13.1493   19.7654   17.8444 C   0  0  0  0  0  0  0  0  0  0  0  0
   11.9208   20.2776   17.4905 C   0  0  0  0  0  0  0  0  0  0  0  0
   10.8368   19.4346   17.2877 C   0  0  0  0  0  0  0  0  0  0  0  0
   14.3813   20.8607   15.4891 C   0  0  0  0  0  0  0  0  0  0  0  0
   13.9708   21.8794   14.4212 C   0  0  0  0  0  0  0  0  0  0  0  0
   14.5906   21.5664   13.0703 C   0  0  0  0  0  0  0  0  0  0  0  0
   12.4426   21.9151   14.2748 C   0  0  0  0  0  0  0  0  0  0  0  0
   17.3023   23.4679   17.2226 C   0  0  0  0  0  0  0  0  0  0  0  0
   18.2773   24.5020   16.8760 N   0  0  0  0  0  0  0  0  0  0  0  0
   19.4316   24.3470   16.2510 C   0  0  0  0  0  0  0  0  0  0  0  0
   19.8595   23.2488   15.8974 O   0  0  0  0  0  0  0  0  0  0  0  0
   18.0464   25.4221   17.1394 H   0  0  0  0  0  0  0  0  0  0  0  0
   20.1008   25.5139   16.0498 O   0  0  0  0  0  0  0  0  0  0  0  0
   20.4140   25.7807   14.6885 C   0  0  0  0  0  0  0  0  0  0  0  0
   19.3040   26.6813   14.1383 C   0  0  0  0  0  0  0  0  0  0  0  0
   19.5660   27.9558   14.7546 O   0  0  0  0  0  0  0  0  0  0  0  0
   20.9781   28.1038   14.8309 C   0  0  0  0  0  0  0  0  0  0  0  0
   21.3747   28.5806   16.1148 O   0  0  0  0  0  0  0  0  0  0  0  0
   21.9144   27.4898   16.8363 C   0  0  0  0  0  0  0  0  0  0  0  0
   22.6003   26.6349   15.7547 C   0  0  0  0  0  0  0  0  0  0  0  0
   21.6038   26.7390   14.6047 C   0  0  0  0  0  0  0  0  0  0  0  0
   16.8042   23.7446   18.6352 C   0  0  0  0  0  0  0  0  0  0  0  0
   18.6154   24.0834   20.3833 C   0  0  0  0  0  0  0  0  0  0  0  0
   19.5336   23.6101   21.3197 C   0  0  0  0  0  0  0  0  0  0  0  0
   19.5942   22.2567   21.6283 C   0  0  0  0  0  0  0  0  0  0  0  0
   18.7275   21.3989   20.9540 C   0  0  0  0  0  0  0  0  0  0  0  0
   17.8358   21.8695   20.0037 C   0  0  0  0  0  0  0  0  0  0  0  0
   17.7735   23.2260   19.6955 C   0  0  0  0  0  0  0  0  0  0  0  0
  9 17  1  0  0  0
  9 10  1  0  0  0
  9 13  2  0  0  0
 10 11  1  0  0  0
 11 12  1  0  0  0
 12 13  1  0  0  0
 13 14  1  0  0  0
 14 15  2  0  0  0
 15  6  1  0  0  0
 15 16  1  0  0  0
 16 17  2  0  0  0
  6  5  1  0  0  0
  6  7  2  0  0  0
  6  8  2  0  0  0
  5 18  1  0  0  0
  5  4  1  0  0  0
 18 19  1  0  0  0
 19 20  1  0  0  0
 19 21  1  0  0  0
  4  1  1  0  0  0
  1  2  1  0  0  0
  1 22  1  0  0  0
 22 36  1  0  0  0
 22 23  1  0  0  0
 23 24  1  0  0  0
 24 25  2  0  0  0
 24 27  1  0  0  0
 27 28  1  0  0  0
 28 29  1  0  0  0
 28 35  1  0  0  0
 29 30  1  0  0  0
 30 31  1  0  0  0
 31 32  1  0  0  0
 31 35  1  0  0  0
 32 33  1  0  0  0
 33 34  1  0  0  0
 34 35  1  0  0  0
 36 42  1  0  0  0
 37 42  1  0  0  0
 37 38  2  0  0  0
 38 39  1  0  0  0
 39 40  2  0  0  0
 40 41  1  0  0  0
 41 42  2  0  0  0
  2  3  1  0  0  0
 23 26  1  0  0  0
M  END
> <minimizedAffinity>
-9.27550

$$$$
2Z4O_065_B_404


 42 46  0  0  0  0  0  0  0  0999 V2000
   19.7666   23.8043   19.7388 C   0  0  0  0  0  0  0  0  0  0  0  0
   19.3846   24.0495   21.0880 O   0  0  0  0  0  0  0  0  0  0  0  0
   19.7378   23.3475   21.6567 H   0  0  0  0  0  0  0  0  0  0  0  0
   19.1602   22.5118   19.1907 C   0  0  0  0  0  0  0  0  0  0  0  0
   18.1011   22.8394   18.2393 N   0  0  0  0  0  0  0  0  0  0  0  0
   16.7044   22.0166   18.5025 S   0  0  0  0  0  0  0  0  0  0  0  0
   16.0445   22.5957   19.7003 O   0  0  0  0  0  0  0  0  0  0  0  0
   17.0874   20.5720   18.6375 O   0  0  0  0  0  0  0  0  0  0  0  0
   14.1440   22.3766   14.7753 C   0  0  0  0  0  0  0  0  0  0  0  0
   13.5923   22.3441   13.5212 O   0  0  0  0  0  0  0  0  0  0  0  0
   14.4081   21.5469   12.7462 C   0  0  0  0  0  0  0  0  0  0  0  0
   15.4189   21.0307   13.5172 O   0  0  0  0  0  0  0  0  0  0  0  0
   15.2883   21.5900   14.7621 C   0  0  0  0  0  0  0  0  0  0  0  0
   16.0446   21.4847   15.9179 C   0  0  0  0  0  0  0  0  0  0  0  0
   15.6897   22.1689   17.0824 C   0  0  0  0  0  0  0  0  0  0  0  0
   14.5556   22.9502   17.0778 C   0  0  0  0  0  0  0  0  0  0  0  0
   13.7767   23.0566   15.9338 C   0  0  0  0  0  0  0  0  0  0  0  0
   17.9473   24.2589   17.9801 C   0  0  0  0  0  0  0  0  0  0  0  0
   18.4310   24.6612   16.5834 C   0  0  0  0  0  0  0  0  0  0  0  0
   19.1371   23.5174   15.8761 C   0  0  0  0  0  0  0  0  0  0  0  0
   17.2493   25.1295   15.7219 C   0  0  0  0  0  0  0  0  0  0  0  0
   21.2862   23.8493   19.5829 C   0  0  0  0  0  0  0  0  0  0  0  0
   21.5914   24.9599   18.6810 N   0  0  0  0  0  0  0  0  0  0  0  0
   21.3599   26.2465   18.8766 C   0  0  0  0  0  0  0  0  0  0  0  0
   20.7995   26.6807   19.8824 O   0  0  0  0  0  0  0  0  0  0  0  0
   22.0198   24.7208   17.8275 H   0  0  0  0  0  0  0  0  0  0  0  0
   21.7893   27.0365   17.8561 O   0  0  0  0  0  0  0  0  0  0  0  0
   21.4763   26.5395   16.5609 C   0  0  0  0  0  0  0  0  0  0  0  0
   20.5855   27.5832   15.8804 C   0  0  0  0  0  0  0  0  0  0  0  0
   21.4958   28.6548   15.5710 O   0  0  0  0  0  0  0  0  0  0  0  0
   22.7358   28.0615   15.2072 C   0  0  0  0  0  0  0  0  0  0  0  0
   23.8265   28.7215   15.8456 O   0  0  0  0  0  0  0  0  0  0  0  0
   24.2726   27.8983   16.9062 C   0  0  0  0  0  0  0  0  0  0  0  0
   24.0471   26.4677   16.3831 C   0  0  0  0  0  0  0  0  0  0  0  0
   22.7115   26.6128   15.6610 C   0  0  0  0  0  0  0  0  0  0  0  0
   22.0189   24.0935   20.8958 C   0  0  0  0  0  0  0  0  0  0  0  0
   24.1281   23.3595   19.6859 C   0  0  0  0  0  0  0  0  0  0  0  0
   25.5137   23.2950   19.5456 C   0  0  0  0  0  0  0  0  0  0  0  0
   26.3451   23.9882   20.4167 C   0  0  0  0  0  0  0  0  0  0  0  0
   25.7457   24.7213   21.4389 C   0  0  0  0  0  0  0  0  0  0  0  0
   24.3692   24.7601   21.5919 C   0  0  0  0  0  0  0  0  0  0  0  0
   23.5357   24.0671   20.7180 C   0  0  0  0  0  0  0  0  0  0  0  0
  9 17  1  0  0  0
  9 10  1  0  0  0
  9 13  2  0  0  0
 10 11  1  0  0  0
 11 12  1  0  0  0
 12 13  1  0  0  0
 13 14  1  0  0  0
 14 15  2  0  0  0
 15  6  1  0  0  0
 15 16  1  0  0  0
 16 17  2  0  0  0
  6  5  1  0  0  0
  6  7  2  0  0  0
  6  8  2  0  0  0
  5 18  1  0  0  0
  5  4  1  0  0  0
 18 19  1  0  0  0
 19 20  1  0  0  0
 19 21  1  0  0  0
  4  1  1  0  0  0
  1  2  1  0  0  0
  1 22  1  0  0  0
 22 36  1  0  0  0
 22 23  1  0  0  0
 23 24  1  0  0  0
 24 25  2  0  0  0
 24 27  1  0  0  0
 27 28  1  0  0  0
 28 29  1  0  0  0
 28 35  1  0  0  0
 29 30  1  0  0  0
 30 31  1  0  0  0
 31 32  1  0  0  0
 31 35  1  0  0  0
 32 33  1  0  0  0
 33 34  1  0  0  0
 34 35  1  0  0  0
 36 42  1  0  0  0
 37 42  1  0  0  0
 37 38  2  0  0  0
 38 39  1  0  0  0
 39 40  2  0  0  0
 40 41  1  0  0  0
 41 42  2  0  0  0
  2  3  1  0  0  0
 23 26  1  0  0  0
M  END
> <minimizedAffinity>
-8.97075

$$$$
2Z4O_065_B_404


 42 46  0  0  0  0  0  0  0  0999 V2000
   16.9467   23.4681   15.8999 C   0  0  0  0  0  0  0  0  0  0  0  0
   17.1952   23.0715   14.5556 O   0  0  0  0  0  0  0  0  0  0  0  0
   16.6721   23.6237   13.9536 H   0  0  0  0  0  0  0  0  0  0  0  0
   15.4933   23.2334   16.3140 C   0  0  0  0  0  0  0  0  0  0  0  0
   15.3046   21.8218   16.6396 N   0  0  0  0  0  0  0  0  0  0  0  0
   15.0676   21.5433   18.2405 S   0  0  0  0  0  0  0  0  0  0  0  0
   14.2863   22.6770   18.7971 O   0  0  0  0  0  0  0  0  0  0  0  0
   16.4311   21.3691   18.8426 O   0  0  0  0  0  0  0  0  0  0  0  0
   12.7638   17.6671   18.7355 C   0  0  0  0  0  0  0  0  0  0  0  0
   11.8387   16.6738   18.9244 O   0  0  0  0  0  0  0  0  0  0  0  0
   10.6015   17.2816   18.9617 C   0  0  0  0  0  0  0  0  0  0  0  0
   10.7395   18.6272   18.7316 O   0  0  0  0  0  0  0  0  0  0  0  0
   12.0851   18.8755   18.6477 C   0  0  0  0  0  0  0  0  0  0  0  0
   12.8114   20.0434   18.4816 C   0  0  0  0  0  0  0  0  0  0  0  0
   14.2066   20.0284   18.4229 C   0  0  0  0  0  0  0  0  0  0  0  0
   14.8655   18.8228   18.5180 C   0  0  0  0  0  0  0  0  0  0  0  0
   14.1546   17.6402   18.6699 C   0  0  0  0  0  0  0  0  0  0  0  0
   14.4051   21.1164   15.7457 C   0  0  0  0  0  0  0  0  0  0  0  0
   13.9464   21.9792   14.5659 C   0  0  0  0  0  0  0  0  0  0  0  0
   14.4177   21.4181   13.2355 C   0  0  0  0  0  0  0  0  0  0  0  0
   12.4150   22.0910   14.5480 C   0  0  0  0  0  0  0  0  0  0  0  0
   17.3970   24.9090   16.1382 C   0  0  0  0  0  0  0  0  0  0  0  0
   18.4978   24.8599   17.1005 N   0  0  0  0  0  0  0  0  0  0  0  0
   19.1471   23.7922   17.5315 C   0  0  0  0  0  0  0  0  0  0  0  0
   18.8634   22.6482   17.1784 O   0  0  0  0  0  0  0  0  0  0  0  0
   18.7893   25.7241   17.4710 H   0  0  0  0  0  0  0  0  0  0  0  0
   20.1458   24.0816   18.4082 O   0  0  0  0  0  0  0  0  0  0  0  0
   19.6948   24.4971   19.6914 C   0  0  0  0  0  0  0  0  0  0  0  0
   20.0628   23.3868   20.6802 C   0  0  0  0  0  0  0  0  0  0  0  0
   21.4904   23.5143   20.8159 O   0  0  0  0  0  0  0  0  0  0  0  0
   21.7952   24.9023   20.7681 C   0  0  0  0  0  0  0  0  0  0  0  0
   22.9068   25.1536   19.9113 O   0  0  0  0  0  0  0  0  0  0  0  0
   22.4103   25.6934   18.7014 C   0  0  0  0  0  0  0  0  0  0  0  0
   21.1902   26.5237   19.1409 C   0  0  0  0  0  0  0  0  0  0  0  0
   20.5817   25.6284   20.2154 C   0  0  0  0  0  0  0  0  0  0  0  0
   17.9038   25.5973   14.8775 C   0  0  0  0  0  0  0  0  0  0  0  0
   19.6871   27.2849   15.5283 C   0  0  0  0  0  0  0  0  0  0  0  0
   21.0110   27.7136   15.6131 C   0  0  0  0  0  0  0  0  0  0  0  0
   22.0508   26.8767   15.2272 C   0  0  0  0  0  0  0  0  0  0  0  0
   21.7193   25.6161   14.7346 C   0  0  0  0  0  0  0  0  0  0  0  0
   20.4009   25.2044   14.6255 C   0  0  0  0  0  0  0  0  0  0  0  0
   19.3587   26.0421   15.0140 C   0  0  0  0  0  0  0  0  0  0  0  0
  9 17  1  0  0  0
  9 10  1  0  0  0
  9 13  2  0  0  0
 10 11  1  0  0  0
 11 12  1  0  0  0
 12 13  1  0  0  0
 13 14  1  0  0  0
 14 15  2  0  0  0
 15  6  1  0  0  0
 15 16  1  0  0  0
 16 17  2  0  0  0
  6  5  1  0  0  0
  6  7  2  0  0  0
  6  8  2  0  0  0
  5 18  1  0  0  0
  5  4  1  0  0  0
 18 19  1  0  0  0
 19 20  1  0  0  0
 19 21  1  0  0  0
  4  1  1  0  0  0
  1  2  1  0  0  0
  1 22  1  0  0  0
 22 36  1  0  0  0
 22 23  1  0  0  0
 23 24  1  0  0  0
 24 25  2  0  0  0
 24 27  1  0  0  0
 27 28  1  0  0  0
 28 29  1  0  0  0
 28 35  1  0  0  0
 29 30  1  0  0  0
 30 31  1  0  0  0
 31 32  1  0  0  0
 31 35  1  0  0  0
 32 33  1  0  0  0
 33 34  1  0  0  0
 34 35  1  0  0  0
 36 42  1  0  0  0
 37 42  1  0  0  0
 37 38  2  0  0  0
 38 39  1  0  0  0
 39 40  2  0  0  0
 40 41  1  0  0  0
 41 42  2  0  0  0
  2  3  1  0  0  0
 23 26  1  0  0  0
M  END
> <minimizedAffinity>
-8.82191

$$$$
2Z4O_065_B_404


 42 46  0  0  0  0  0  0  0  0999 V2000
   19.7059   23.9418   17.5108 C   0  0  0  0  0  0  0  0  0  0  0  0
   20.3200   23.8222   16.2321 O   0  0  0  0  0  0  0  0  0  0  0  0
   20.0549   24.5706   15.6748 H   0  0  0  0  0  0  0  0  0  0  0  0
   18.1812   23.8525   17.4318 C   0  0  0  0  0  0  0  0  0  0  0  0
   17.7381   22.5963   18.0316 N   0  0  0  0  0  0  0  0  0  0  0  0
   17.1481   21.5200   16.9405 S   0  0  0  0  0  0  0  0  0  0  0  0
   18.1443   20.4303   16.7798 O   0  0  0  0  0  0  0  0  0  0  0  0
   16.8690   22.3005   15.6897 O   0  0  0  0  0  0  0  0  0  0  0  0
   13.1542   19.9424   18.4025 C   0  0  0  0  0  0  0  0  0  0  0  0
   11.8595   19.5265   18.5719 O   0  0  0  0  0  0  0  0  0  0  0  0
   11.2641   19.5563   17.3284 C   0  0  0  0  0  0  0  0  0  0  0  0
   12.1881   19.9193   16.3812 O   0  0  0  0  0  0  0  0  0  0  0  0
   13.3457   20.2137   17.0541 C   0  0  0  0  0  0  0  0  0  0  0  0
   14.5796   20.6803   16.6312 C   0  0  0  0  0  0  0  0  0  0  0  0
   15.6207   20.9014   17.5353 C   0  0  0  0  0  0  0  0  0  0  0  0
   15.4133   20.6338   18.8702 C   0  0  0  0  0  0  0  0  0  0  0  0
   14.1886   20.1516   19.3112 C   0  0  0  0  0  0  0  0  0  0  0  0
   18.6531   22.0469   19.0148 C   0  0  0  0  0  0  0  0  0  0  0  0
   18.1484   22.2148   20.4514 C   0  0  0  0  0  0  0  0  0  0  0  0
   18.8383   21.2602   21.4104 C   0  0  0  0  0  0  0  0  0  0  0  0
   18.3716   23.6559   20.9323 C   0  0  0  0  0  0  0  0  0  0  0  0
   20.1812   25.2032   18.2310 C   0  0  0  0  0  0  0  0  0  0  0  0
   21.6337   25.2668   18.0694 N   0  0  0  0  0  0  0  0  0  0  0  0
   22.5518   25.2967   19.0199 C   0  0  0  0  0  0  0  0  0  0  0  0
   22.2744   25.3084   20.2186 O   0  0  0  0  0  0  0  0  0  0  0  0
   21.9668   25.2901   17.1432 H   0  0  0  0  0  0  0  0  0  0  0  0
   23.8254   25.3256   18.5434 O   0  0  0  0  0  0  0  0  0  0  0  0
   24.8263   25.1672   19.5413 C   0  0  0  0  0  0  0  0  0  0  0  0
   25.1750   23.6768   19.5979 C   0  0  0  0  0  0  0  0  0  0  0  0
   25.9281   23.4596   18.3902 O   0  0  0  0  0  0  0  0  0  0  0  0
   26.7118   24.6250   18.1679 C   0  0  0  0  0  0  0  0  0  0  0  0
   26.6409   25.0379   16.8050 O   0  0  0  0  0  0  0  0  0  0  0  0
   25.7853   26.1625   16.7351 C   0  0  0  0  0  0  0  0  0  0  0  0
   26.0352   26.8997   18.0638 C   0  0  0  0  0  0  0  0  0  0  0  0
   26.1561   25.7354   19.0416 C   0  0  0  0  0  0  0  0  0  0  0  0
   19.5869   26.4833   17.6582 C   0  0  0  0  0  0  0  0  0  0  0  0
   19.8822   26.7544   15.1501 C   0  0  0  0  0  0  0  0  0  0  0  0
   20.6021   27.1591   14.0268 C   0  0  0  0  0  0  0  0  0  0  0  0
   21.8025   27.8448   14.1662 C   0  0  0  0  0  0  0  0  0  0  0  0
   22.2643   28.0867   15.4585 C   0  0  0  0  0  0  0  0  0  0  0  0
   21.5598   27.6582   16.5719 C   0  0  0  0  0  0  0  0  0  0  0  0
   20.3559   26.9727   16.4326 C   0  0  0  0  0  0  0  0  0  0  0  0
  9 17  1  0  0  0
  9 10  1  0  0  0
  9 13  2  0  0  0
 10 11  1  0  0  0
 11 12  1  0  0  0
 12 13  1  0  0  0
 13 14  1  0  0  0
 14 15  2  0  0  0
 15  6  1  0  0  0
 15 16  1  0  0  0
 16 17  2  0  0  0
  6  5  1  0  0  0
  6  7  2  0  0  0
  6  8  2  0  0  0
  5 18  1  0  0  0
  5  4  1  0  0  0
 18 19  1  0  0  0
 19 20  1  0  0  0
 19 21  1  0  0  0
  4  1  1  0  0  0
  1  2  1  0  0  0
  1 22  1  0  0  0
 22 36  1  0  0  0
 22 23  1  0  0  0
 23 24  1  0  0  0
 24 25  2  0  0  0
 24 27  1  0  0  0
 27 28  1  0  0  0
 28 29  1  0  0  0
 28 35  1  0  0  0
 29 30  1  0  0  0
 30 31  1  0  0  0
 31 32  1  0  0  0
 31 35  1  0  0  0
 32 33  1  0  0  0
 33 34  1  0  0  0
 34 35  1  0  0  0
 36 42  1  0  0  0
 37 42  1  0  0  0
 37 38  2  0  0  0
 38 39  1  0  0  0
 39 40  2  0  0  0
 40 41  1  0  0  0
 41 42  2  0  0  0
  2  3  1  0  0  0
 23 26  1  0  0  0
M  END
> <minimizedAffinity>
-8.77408

$$$$
