1G48_F6B_A_555


 25 26  0  0  0  0  0  0  0  0999 V2000
   -4.0010    4.3512   13.2931 C   0  0  0  0  0  0  0  0  0  0  0  0
   -4.8527    4.0478   12.4607 O   0  0  0  0  0  0  0  0  0  0  0  0
   -4.4412    4.5705   14.6354 N   0  0  0  0  0  0  0  0  0  0  0  0
   -3.9346    5.1037   15.2898 H   0  0  0  0  0  0  0  0  0  0  0  0
   -1.7378    5.5215   13.0579 C   0  0  0  0  0  0  0  0  0  0  0  0
   -0.4314    5.6031   12.5248 C   0  0  0  0  0  0  0  0  0  0  0  0
    0.0421    4.5821   11.6398 C   0  0  0  0  0  0  0  0  0  0  0  0
   -0.8190    3.5280   11.3484 C   0  0  0  0  0  0  0  0  0  0  0  0
   -2.0992    3.4714   11.8920 C   0  0  0  0  0  0  0  0  0  0  0  0
   -2.5821    4.4532   12.7415 C   0  0  0  0  0  0  0  0  0  0  0  0
    1.7064    4.7282   10.9582 S   0  0  0  0  0  0  0  0  0  0  0  0
    2.8453    4.4807   12.1759 N   0  0  0  0  0  0  0  0  0  0  0  0
    1.6985    6.0653   10.3783 O   0  0  0  0  0  0  0  0  0  0  0  0
    1.7150    3.7141    9.9003 O   0  0  0  0  0  0  0  0  0  0  0  0
    2.7716    5.2271   12.8671 H   0  0  0  0  0  0  0  0  0  0  0  0
    3.7816    4.4833   11.7712 H   0  0  0  0  0  0  0  0  0  0  0  0
   -5.7252    3.9216   14.9433 C   0  0  0  0  0  0  0  0  0  0  0  0
   -5.8274    2.8484   15.8495 C   0  0  0  0  0  0  0  0  0  0  0  0
   -6.5987    3.0196   17.0469 C   0  0  0  0  0  0  0  0  0  0  0  0
   -6.6926    1.9067   17.9665 C   0  0  0  0  0  0  0  0  0  0  0  0
   -6.0216    0.6545   17.6710 C   0  0  0  0  0  0  0  0  0  0  0  0
   -5.2526    0.5067   16.4613 C   0  0  0  0  0  0  0  0  0  0  0  0
   -5.1525    1.5947   15.5524 C   0  0  0  0  0  0  0  0  0  0  0  0
   -7.2165    4.1785   17.3134 F   0  0  0  0  0  0  0  0  0  0  0  0
   -4.4325    1.4331   14.4339 F   0  0  0  0  0  0  0  0  0  0  0  0
  5  6  2  0  0  0
  5 10  1  0  0  0
  6  7  1  0  0  0
  7  8  2  0  0  0
  7 11  1  0  0  0
  8  9  1  0  0  0
  9 10  2  0  0  0
 10  1  1  0  0  0
  1  2  2  0  0  0
  1  3  1  0  0  0
  3 17  1  0  0  0
 17 18  1  0  0  0
 11 12  1  0  0  0
 11 13  2  0  0  0
 11 14  2  0  0  0
 18 19  2  0  0  0
 18 23  1  0  0  0
 19 20  1  0  0  0
 19 24  1  0  0  0
 20 21  2  0  0  0
 21 22  1  0  0  0
 22 23  2  0  0  0
 23 25  1  0  0  0
  3  4  1  0  0  0
 12 15  1  0  0  0
 12 16  1  0  0  0
M  END
> <minimizedAffinity>
-7.39239

$$$$
1G48_F6B_A_555


 25 26  0  0  0  0  0  0  0  0999 V2000
   -3.9171    4.1610   13.0953 C   0  0  0  0  0  0  0  0  0  0  0  0
   -4.7055    3.7406   12.2515 O   0  0  0  0  0  0  0  0  0  0  0  0
   -4.4371    4.4528   14.3946 N   0  0  0  0  0  0  0  0  0  0  0  0
   -3.9977    5.0660   15.0272 H   0  0  0  0  0  0  0  0  0  0  0  0
   -1.6596    5.3633   13.0217 C   0  0  0  0  0  0  0  0  0  0  0  0
   -0.3364    5.4924   12.5420 C   0  0  0  0  0  0  0  0  0  0  0  0
    0.1784    4.5391   11.6060 C   0  0  0  0  0  0  0  0  0  0  0  0
   -0.6609    3.5006   11.2124 C   0  0  0  0  0  0  0  0  0  0  0  0
   -1.9585    3.3961   11.7051 C   0  0  0  0  0  0  0  0  0  0  0  0
   -2.4810    4.3126   12.6027 C   0  0  0  0  0  0  0  0  0  0  0  0
    1.8637    4.7456   10.9956 S   0  0  0  0  0  0  0  0  0  0  0  0
    2.9461    4.7161   12.2873 N   0  0  0  0  0  0  0  0  0  0  0  0
    1.7906    6.0110   10.2760 O   0  0  0  0  0  0  0  0  0  0  0  0
    2.0076    3.6318   10.0541 O   0  0  0  0  0  0  0  0  0  0  0  0
    2.7781    5.5216   12.8901 H   0  0  0  0  0  0  0  0  0  0  0  0
    3.9013    4.7511   11.9313 H   0  0  0  0  0  0  0  0  0  0  0  0
   -5.6929    3.7473   14.6940 C   0  0  0  0  0  0  0  0  0  0  0  0
   -5.7782    2.7515   15.6862 C   0  0  0  0  0  0  0  0  0  0  0  0
   -5.1073    1.5010   15.4767 C   0  0  0  0  0  0  0  0  0  0  0  0
   -5.2058    0.4895   16.5064 C   0  0  0  0  0  0  0  0  0  0  0  0
   -5.9643    0.7481   17.7161 C   0  0  0  0  0  0  0  0  0  0  0  0
   -6.6296    2.0126   17.9036 C   0  0  0  0  0  0  0  0  0  0  0  0
   -6.5406    3.0120   16.8972 C   0  0  0  0  0  0  0  0  0  0  0  0
   -4.4078    1.2690   14.3574 F   0  0  0  0  0  0  0  0  0  0  0  0
   -7.1670    4.1799   17.0946 F   0  0  0  0  0  0  0  0  0  0  0  0
  5  6  2  0  0  0
  5 10  1  0  0  0
  6  7  1  0  0  0
  7  8  2  0  0  0
  7 11  1  0  0  0
  8  9  1  0  0  0
  9 10  2  0  0  0
 10  1  1  0  0  0
  1  2  2  0  0  0
  1  3  1  0  0  0
  3 17  1  0  0  0
 17 18  1  0  0  0
 11 12  1  0  0  0
 11 13  2  0  0  0
 11 14  2  0  0  0
 18 19  2  0  0  0
 18 23  1  0  0  0
 19 20  1  0  0  0
 19 24  1  0  0  0
 20 21  2  0  0  0
 21 22  1  0  0  0
 22 23  2  0  0  0
 23 25  1  0  0  0
  3  4  1  0  0  0
 12 15  1  0  0  0
 12 16  1  0  0  0
M  END
> <minimizedAffinity>
-7.34381

$$$$
1G48_F6B_A_555


 25 26  0  0  0  0  0  0  0  0999 V2000
   -4.2533    6.3034   14.3823 C   0  0  0  0  0  0  0  0  0  0  0  0
   -3.1697    6.2079   13.8106 O   0  0  0  0  0  0  0  0  0  0  0  0
   -4.9028    7.5766   14.3535 N   0  0  0  0  0  0  0  0  0  0  0  0
   -5.5816    7.8518   15.0113 H   0  0  0  0  0  0  0  0  0  0  0  0
   -6.0407    4.8735   15.5258 C   0  0  0  0  0  0  0  0  0  0  0  0
   -6.4612    3.6792   16.1540 C   0  0  0  0  0  0  0  0  0  0  0  0
   -5.5386    2.5966   16.3165 C   0  0  0  0  0  0  0  0  0  0  0  0
   -4.2467    2.7685   15.8275 C   0  0  0  0  0  0  0  0  0  0  0  0
   -3.8618    3.9544   15.2088 C   0  0  0  0  0  0  0  0  0  0  0  0
   -4.7341    5.0187   15.0505 C   0  0  0  0  0  0  0  0  0  0  0  0
   -6.1006    1.0946   17.1434 S   0  0  0  0  0  0  0  0  0  0  0  0
   -5.3539   -0.2499   16.4538 N   0  0  0  0  0  0  0  0  0  0  0  0
   -7.5467    1.1571   16.9724 O   0  0  0  0  0  0  0  0  0  0  0  0
   -5.7421    1.3400   18.5431 O   0  0  0  0  0  0  0  0  0  0  0  0
   -5.6568   -0.3474   15.4847 H   0  0  0  0  0  0  0  0  0  0  0  0
   -5.6114   -1.0872   16.9764 H   0  0  0  0  0  0  0  0  0  0  0  0
   -4.4577    8.4353   13.2449 C   0  0  0  0  0  0  0  0  0  0  0  0
   -3.9837    9.7453   13.4517 C   0  0  0  0  0  0  0  0  0  0  0  0
   -4.7049   10.8450   12.8784 C   0  0  0  0  0  0  0  0  0  0  0  0
   -4.2035   12.1836   13.1008 C   0  0  0  0  0  0  0  0  0  0  0  0
   -3.0028   12.3941   13.8881 C   0  0  0  0  0  0  0  0  0  0  0  0
   -2.2957   11.2731   14.4538 C   0  0  0  0  0  0  0  0  0  0  0  0
   -2.7790    9.9540   14.2395 C   0  0  0  0  0  0  0  0  0  0  0  0
   -5.8135   10.6436   12.1530 F   0  0  0  0  0  0  0  0  0  0  0  0
   -2.1049    8.9279   14.7762 F   0  0  0  0  0  0  0  0  0  0  0  0
  5  6  2  0  0  0
  5 10  1  0  0  0
  6  7  1  0  0  0
  7  8  2  0  0  0
  7 11  1  0  0  0
  8  9  1  0  0  0
  9 10  2  0  0  0
 10  1  1  0  0  0
  1  2  2  0  0  0
  1  3  1  0  0  0
  3 17  1  0  0  0
 17 18  1  0  0  0
 11 12  1  0  0  0
 11 13  2  0  0  0
 11 14  2  0  0  0
 18 19  2  0  0  0
 18 23  1  0  0  0
 19 20  1  0  0  0
 19 24  1  0  0  0
 20 21  2  0  0  0
 21 22  1  0  0  0
 22 23  2  0  0  0
 23 25  1  0  0  0
  3  4  1  0  0  0
 12 15  1  0  0  0
 12 16  1  0  0  0
M  END
> <minimizedAffinity>
-7.27464

$$$$
1G48_F6B_A_555


 25 26  0  0  0  0  0  0  0  0999 V2000
   -4.2751    6.2496   14.2725 C   0  0  0  0  0  0  0  0  0  0  0  0
   -3.0750    6.3209   14.0181 O   0  0  0  0  0  0  0  0  0  0  0  0
   -5.0986    7.3487   13.8757 N   0  0  0  0  0  0  0  0  0  0  0  0
   -5.9714    7.5459   14.2863 H   0  0  0  0  0  0  0  0  0  0  0  0
   -3.8050    3.9206   15.2221 C   0  0  0  0  0  0  0  0  0  0  0  0
   -4.2203    2.7408   15.8804 C   0  0  0  0  0  0  0  0  0  0  0  0
   -5.5769    2.6093   16.3188 C   0  0  0  0  0  0  0  0  0  0  0  0
   -6.4394    3.6761   16.0828 C   0  0  0  0  0  0  0  0  0  0  0  0
   -6.0012    4.8281   15.4361 C   0  0  0  0  0  0  0  0  0  0  0  0
   -4.6966    4.9728   14.9937 C   0  0  0  0  0  0  0  0  0  0  0  0
   -6.0805    1.0810   17.1352 S   0  0  0  0  0  0  0  0  0  0  0  0
   -5.3132   -0.2328   16.4100 N   0  0  0  0  0  0  0  0  0  0  0  0
   -7.5311    1.1069   16.9959 O   0  0  0  0  0  0  0  0  0  0  0  0
   -5.6985    1.3162   18.5303 O   0  0  0  0  0  0  0  0  0  0  0  0
   -5.6344   -0.3246   15.4462 H   0  0  0  0  0  0  0  0  0  0  0  0
   -5.5369   -1.0841   16.9255 H   0  0  0  0  0  0  0  0  0  0  0  0
   -4.5144    8.1566   12.7937 C   0  0  0  0  0  0  0  0  0  0  0  0
   -4.5007    9.5644   12.8293 C   0  0  0  0  0  0  0  0  0  0  0  0
   -3.7315   10.2276   13.8424 C   0  0  0  0  0  0  0  0  0  0  0  0
   -3.7292   11.6741   13.8641 C   0  0  0  0  0  0  0  0  0  0  0  0
   -4.4873   12.4220   12.8784 C   0  0  0  0  0  0  0  0  0  0  0  0
   -5.2524   11.7330   11.8702 C   0  0  0  0  0  0  0  0  0  0  0  0
   -5.2628   10.3122   11.8416 C   0  0  0  0  0  0  0  0  0  0  0  0
   -3.0330    9.5308   14.7493 F   0  0  0  0  0  0  0  0  0  0  0  0
   -5.9810    9.6941   10.8942 F   0  0  0  0  0  0  0  0  0  0  0  0
  5  6  2  0  0  0
  5 10  1  0  0  0
  6  7  1  0  0  0
  7  8  2  0  0  0
  7 11  1  0  0  0
  8  9  1  0  0  0
  9 10  2  0  0  0
 10  1  1  0  0  0
  1  2  2  0  0  0
  1  3  1  0  0  0
  3 17  1  0  0  0
 17 18  1  0  0  0
 11 12  1  0  0  0
 11 13  2  0  0  0
 11 14  2  0  0  0
 18 19  2  0  0  0
 18 23  1  0  0  0
 19 20  1  0  0  0
 19 24  1  0  0  0
 20 21  2  0  0  0
 21 22  1  0  0  0
 22 23  2  0  0  0
 23 25  1  0  0  0
  3  4  1  0  0  0
 12 15  1  0  0  0
 12 16  1  0  0  0
M  END
> <minimizedAffinity>
-7.23470

$$$$
1G48_F6B_A_555


 25 26  0  0  0  0  0  0  0  0999 V2000
   -5.3884    7.0476   14.7713 C   0  0  0  0  0  0  0  0  0  0  0  0
   -6.4307    7.5260   15.2128 O   0  0  0  0  0  0  0  0  0  0  0  0
   -4.4910    7.9333   14.0976 N   0  0  0  0  0  0  0  0  0  0  0  0
   -3.8125    7.6277   13.4530 H   0  0  0  0  0  0  0  0  0  0  0  0
   -6.3036    4.7312   15.3577 C   0  0  0  0  0  0  0  0  0  0  0  0
   -6.1264    3.3487   15.5920 C   0  0  0  0  0  0  0  0  0  0  0  0
   -4.8215    2.7693   15.4846 C   0  0  0  0  0  0  0  0  0  0  0  0
   -3.7676    3.6089   15.1353 C   0  0  0  0  0  0  0  0  0  0  0  0
   -3.9727    4.9663   14.9058 C   0  0  0  0  0  0  0  0  0  0  0  0
   -5.2240    5.5503   15.0146 C   0  0  0  0  0  0  0  0  0  0  0  0
   -4.6256    1.0059   15.8128 S   0  0  0  0  0  0  0  0  0  0  0  0
   -5.9747    0.4262   16.6402 N   0  0  0  0  0  0  0  0  0  0  0  0
   -3.3729    0.9560   16.5562 O   0  0  0  0  0  0  0  0  0  0  0  0
   -4.4448    0.4434   14.4716 O   0  0  0  0  0  0  0  0  0  0  0  0
   -6.0252    0.8664   17.5589 H   0  0  0  0  0  0  0  0  0  0  0  0
   -5.8969   -0.5847   16.7515 H   0  0  0  0  0  0  0  0  0  0  0  0
   -4.6803    9.3461   14.4617 C   0  0  0  0  0  0  0  0  0  0  0  0
   -4.4021   10.3974   13.5668 C   0  0  0  0  0  0  0  0  0  0  0  0
   -3.2490   11.2196   13.7957 C   0  0  0  0  0  0  0  0  0  0  0  0
   -2.9787   12.2949   12.8665 C   0  0  0  0  0  0  0  0  0  0  0  0
   -3.8578   12.5224   11.7346 C   0  0  0  0  0  0  0  0  0  0  0  0
   -5.0102   11.6828   11.5257 C   0  0  0  0  0  0  0  0  0  0  0  0
   -5.2856   10.6250   12.4340 C   0  0  0  0  0  0  0  0  0  0  0  0
   -2.4408   11.0035   14.8426 F   0  0  0  0  0  0  0  0  0  0  0  0
   -6.3624    9.8573   12.2184 F   0  0  0  0  0  0  0  0  0  0  0  0
  5  6  2  0  0  0
  5 10  1  0  0  0
  6  7  1  0  0  0
  7  8  2  0  0  0
  7 11  1  0  0  0
  8  9  1  0  0  0
  9 10  2  0  0  0
 10  1  1  0  0  0
  1  2  2  0  0  0
  1  3  1  0  0  0
  3 17  1  0  0  0
 17 18  1  0  0  0
 11 12  1  0  0  0
 11 13  2  0  0  0
 11 14  2  0  0  0
 18 19  2  0  0  0
 18 23  1  0  0  0
 19 20  1  0  0  0
 19 24  1  0  0  0
 20 21  2  0  0  0
 21 22  1  0  0  0
 22 23  2  0  0  0
 23 25  1  0  0  0
  3  4  1  0  0  0
 12 15  1  0  0  0
 12 16  1  0  0  0
M  END
> <minimizedAffinity>
-7.14633

$$$$
1G48_F6B_A_555


 25 26  0  0  0  0  0  0  0  0999 V2000
   -4.7807    6.2591   14.1460 C   0  0  0  0  0  0  0  0  0  0  0  0
   -5.6791    7.0972   14.1228 O   0  0  0  0  0  0  0  0  0  0  0  0
   -3.5579    6.5863   13.4816 N   0  0  0  0  0  0  0  0  0  0  0  0
   -2.9147    5.9094   13.1696 H   0  0  0  0  0  0  0  0  0  0  0  0
   -6.3780    4.7796   15.4901 C   0  0  0  0  0  0  0  0  0  0  0  0
   -6.6757    3.5868   16.1876 C   0  0  0  0  0  0  0  0  0  0  0  0
   -5.6863    2.5574   16.2934 C   0  0  0  0  0  0  0  0  0  0  0  0
   -4.4554    2.7777   15.6817 C   0  0  0  0  0  0  0  0  0  0  0  0
   -4.1919    3.9607   14.9972 C   0  0  0  0  0  0  0  0  0  0  0  0
   -5.1299    4.9744   14.8914 C   0  0  0  0  0  0  0  0  0  0  0  0
   -6.0902    1.0569   17.2104 S   0  0  0  0  0  0  0  0  0  0  0  0
   -5.3567   -0.2732   16.4797 N   0  0  0  0  0  0  0  0  0  0  0  0
   -7.5475    1.0514   17.1891 O   0  0  0  0  0  0  0  0  0  0  0  0
   -5.6016    1.3581   18.5588 O   0  0  0  0  0  0  0  0  0  0  0  0
   -5.7528   -0.4116   15.5500 H   0  0  0  0  0  0  0  0  0  0  0  0
   -5.5201   -1.1054   17.0463 H   0  0  0  0  0  0  0  0  0  0  0  0
   -3.3546    8.0332   13.3099 C   0  0  0  0  0  0  0  0  0  0  0  0
   -2.2755    8.7169   13.9030 C   0  0  0  0  0  0  0  0  0  0  0  0
   -1.3086    9.3571   13.0586 C   0  0  0  0  0  0  0  0  0  0  0  0
   -0.2067   10.0545   13.6850 C   0  0  0  0  0  0  0  0  0  0  0  0
   -0.0967   10.1000   15.1312 C   0  0  0  0  0  0  0  0  0  0  0  0
   -1.0809    9.4490   15.9584 C   0  0  0  0  0  0  0  0  0  0  0  0
   -2.1660    8.7596   15.3527 C   0  0  0  0  0  0  0  0  0  0  0  0
   -1.4166    9.3120   11.7236 F   0  0  0  0  0  0  0  0  0  0  0  0
   -3.0689    8.1628   16.1427 F   0  0  0  0  0  0  0  0  0  0  0  0
  5  6  2  0  0  0
  5 10  1  0  0  0
  6  7  1  0  0  0
  7  8  2  0  0  0
  7 11  1  0  0  0
  8  9  1  0  0  0
  9 10  2  0  0  0
 10  1  1  0  0  0
  1  2  2  0  0  0
  1  3  1  0  0  0
  3 17  1  0  0  0
 17 18  1  0  0  0
 11 12  1  0  0  0
 11 13  2  0  0  0
 11 14  2  0  0  0
 18 19  2  0  0  0
 18 23  1  0  0  0
 19 20  1  0  0  0
 19 24  1  0  0  0
 20 21  2  0  0  0
 21 22  1  0  0  0
 22 23  2  0  0  0
 23 25  1  0  0  0
  3  4  1  0  0  0
 12 15  1  0  0  0
 12 16  1  0  0  0
M  END
> <minimizedAffinity>
-7.06557

$$$$
1G48_F6B_A_555


 25 26  0  0  0  0  0  0  0  0999 V2000
   -4.5280    5.6078   13.6096 C   0  0  0  0  0  0  0  0  0  0  0  0
   -5.4047    5.8450   12.7818 O   0  0  0  0  0  0  0  0  0  0  0  0
   -3.2834    6.2964   13.4661 N   0  0  0  0  0  0  0  0  0  0  0  0
   -2.4383    5.9712   13.8525 H   0  0  0  0  0  0  0  0  0  0  0  0
   -4.0685    3.5450   15.0521 C   0  0  0  0  0  0  0  0  0  0  0  0
   -4.4569    2.6028   16.0315 C   0  0  0  0  0  0  0  0  0  0  0  0
   -5.7447    2.7063   16.6486 C   0  0  0  0  0  0  0  0  0  0  0  0
   -6.5673    3.7587   16.2566 C   0  0  0  0  0  0  0  0  0  0  0  0
   -6.1562    4.6747   15.2926 C   0  0  0  0  0  0  0  0  0  0  0  0
   -4.9196    4.5877   14.6746 C   0  0  0  0  0  0  0  0  0  0  0  0
   -6.2190    1.4740   17.8782 S   0  0  0  0  0  0  0  0  0  0  0  0
   -6.2293    2.1730   19.4119 N   0  0  0  0  0  0  0  0  0  0  0  0
   -5.2257    0.4259   17.6805 O   0  0  0  0  0  0  0  0  0  0  0  0
   -7.5316    1.0282   17.4026 O   0  0  0  0  0  0  0  0  0  0  0  0
   -5.2816    2.4533   19.6642 H   0  0  0  0  0  0  0  0  0  0  0  0
   -6.5760    1.4961   20.0917 H   0  0  0  0  0  0  0  0  0  0  0  0
   -3.3889    7.5384   12.6846 C   0  0  0  0  0  0  0  0  0  0  0  0
   -3.1867    8.8082   13.2593 C   0  0  0  0  0  0  0  0  0  0  0  0
   -1.8673    9.1779   13.6840 C   0  0  0  0  0  0  0  0  0  0  0  0
   -1.6781   10.4859   14.2723 C   0  0  0  0  0  0  0  0  0  0  0  0
   -2.8022   11.3916   14.4198 C   0  0  0  0  0  0  0  0  0  0  0  0
   -4.1185   10.9974   13.9854 C   0  0  0  0  0  0  0  0  0  0  0  0
   -4.3151    9.7138   13.4080 C   0  0  0  0  0  0  0  0  0  0  0  0
   -0.8333    8.3369   13.5441 F   0  0  0  0  0  0  0  0  0  0  0  0
   -5.5479    9.3702   13.0109 F   0  0  0  0  0  0  0  0  0  0  0  0
  5  6  2  0  0  0
  5 10  1  0  0  0
  6  7  1  0  0  0
  7  8  2  0  0  0
  7 11  1  0  0  0
  8  9  1  0  0  0
  9 10  2  0  0  0
 10  1  1  0  0  0
  1  2  2  0  0  0
  1  3  1  0  0  0
  3 17  1  0  0  0
 17 18  1  0  0  0
 11 12  1  0  0  0
 11 13  2  0  0  0
 11 14  2  0  0  0
 18 19  2  0  0  0
 18 23  1  0  0  0
 19 20  1  0  0  0
 19 24  1  0  0  0
 20 21  2  0  0  0
 21 22  1  0  0  0
 22 23  2  0  0  0
 23 25  1  0  0  0
  3  4  1  0  0  0
 12 15  1  0  0  0
 12 16  1  0  0  0
M  END
> <minimizedAffinity>
-7.00521

$$$$
1G48_F6B_A_555


 25 26  0  0  0  0  0  0  0  0999 V2000
   -4.4317    5.7453   13.5160 C   0  0  0  0  0  0  0  0  0  0  0  0
   -3.4289    5.4370   12.8761 O   0  0  0  0  0  0  0  0  0  0  0  0
   -5.0292    7.0129   13.2332 N   0  0  0  0  0  0  0  0  0  0  0  0
   -5.6130    7.4886   13.8672 H   0  0  0  0  0  0  0  0  0  0  0  0
   -4.0620    3.6329   14.9117 C   0  0  0  0  0  0  0  0  0  0  0  0
   -4.5024    2.6705   15.8485 C   0  0  0  0  0  0  0  0  0  0  0  0
   -5.8090    2.7813   16.4231 C   0  0  0  0  0  0  0  0  0  0  0  0
   -6.5975    3.8605   16.0342 C   0  0  0  0  0  0  0  0  0  0  0  0
   -6.1356    4.7958   15.1127 C   0  0  0  0  0  0  0  0  0  0  0  0
   -4.8796    4.7027   14.5359 C   0  0  0  0  0  0  0  0  0  0  0  0
   -6.3494    1.5233   17.5983 S   0  0  0  0  0  0  0  0  0  0  0  0
   -5.3006    0.2049   17.5454 N   0  0  0  0  0  0  0  0  0  0  0  0
   -7.7144    1.2482   17.1674 O   0  0  0  0  0  0  0  0  0  0  0  0
   -6.3537    2.2482   18.8720 O   0  0  0  0  0  0  0  0  0  0  0  0
   -5.3597   -0.2400   16.6295 H   0  0  0  0  0  0  0  0  0  0  0  0
   -5.5621   -0.4667   18.2672 H   0  0  0  0  0  0  0  0  0  0  0  0
   -4.6862    7.5372   11.9020 C   0  0  0  0  0  0  0  0  0  0  0  0
   -5.6205    7.5864   10.8493 C   0  0  0  0  0  0  0  0  0  0  0  0
   -6.4511    8.7477   10.7097 C   0  0  0  0  0  0  0  0  0  0  0  0
   -7.4053    8.7810    9.6228 C   0  0  0  0  0  0  0  0  0  0  0  0
   -7.5066    7.6631    8.7033 C   0  0  0  0  0  0  0  0  0  0  0  0
   -6.6610    6.5073    8.8642 C   0  0  0  0  0  0  0  0  0  0  0  0
   -5.7218    6.4640    9.9298 C   0  0  0  0  0  0  0  0  0  0  0  0
   -6.3518    9.7771   11.5620 F   0  0  0  0  0  0  0  0  0  0  0  0
   -4.9460    5.3791   10.0585 F   0  0  0  0  0  0  0  0  0  0  0  0
  5  6  2  0  0  0
  5 10  1  0  0  0
  6  7  1  0  0  0
  7  8  2  0  0  0
  7 11  1  0  0  0
  8  9  1  0  0  0
  9 10  2  0  0  0
 10  1  1  0  0  0
  1  2  2  0  0  0
  1  3  1  0  0  0
  3 17  1  0  0  0
 17 18  1  0  0  0
 11 12  1  0  0  0
 11 13  2  0  0  0
 11 14  2  0  0  0
 18 19  2  0  0  0
 18 23  1  0  0  0
 19 20  1  0  0  0
 19 24  1  0  0  0
 20 21  2  0  0  0
 21 22  1  0  0  0
 22 23  2  0  0  0
 23 25  1  0  0  0
  3  4  1  0  0  0
 12 15  1  0  0  0
 12 16  1  0  0  0
M  END
> <minimizedAffinity>
-6.99651

$$$$
1G48_F6B_A_555


 25 26  0  0  0  0  0  0  0  0999 V2000
   -6.0686    6.5193   14.2394 C   0  0  0  0  0  0  0  0  0  0  0  0
   -7.0678    6.3025   13.5578 O   0  0  0  0  0  0  0  0  0  0  0  0
   -5.6865    5.5173   15.1848 N   0  0  0  0  0  0  0  0  0  0  0  0
   -5.1248    5.7030   15.9717 H   0  0  0  0  0  0  0  0  0  0  0  0
   -4.2433    8.2643   14.6523 C   0  0  0  0  0  0  0  0  0  0  0  0
   -3.6378    9.5141   14.3895 C   0  0  0  0  0  0  0  0  0  0  0  0
   -4.2038   10.3874   13.4063 C   0  0  0  0  0  0  0  0  0  0  0  0
   -5.3408    9.9517   12.7317 C   0  0  0  0  0  0  0  0  0  0  0  0
   -5.9130    8.7133   13.0082 C   0  0  0  0  0  0  0  0  0  0  0  0
   -5.3890    7.8571   13.9627 C   0  0  0  0  0  0  0  0  0  0  0  0
   -3.4199   11.9855   13.1113 S   0  0  0  0  0  0  0  0  0  0  0  0
   -4.5812   13.1122   12.6391 N   0  0  0  0  0  0  0  0  0  0  0  0
   -2.4166   11.6685   12.1026 O   0  0  0  0  0  0  0  0  0  0  0  0
   -2.7769   12.2748   14.3961 O   0  0  0  0  0  0  0  0  0  0  0  0
   -4.9763   12.8367   11.7400 H   0  0  0  0  0  0  0  0  0  0  0  0
   -4.1477   14.0314   12.5526 H   0  0  0  0  0  0  0  0  0  0  0  0
   -6.2147    4.1814   14.8668 C   0  0  0  0  0  0  0  0  0  0  0  0
   -6.0420    3.0799   15.7272 C   0  0  0  0  0  0  0  0  0  0  0  0
   -5.2050    1.9931   15.3071 C   0  0  0  0  0  0  0  0  0  0  0  0
   -5.0392    0.8698   16.2035 C   0  0  0  0  0  0  0  0  0  0  0  0
   -5.7055    0.8575   17.4925 C   0  0  0  0  0  0  0  0  0  0  0  0
   -6.5413    1.9612   17.8922 C   0  0  0  0  0  0  0  0  0  0  0  0
   -6.7122    3.0685   17.0180 C   0  0  0  0  0  0  0  0  0  0  0  0
   -4.5919    2.0113   14.1156 F   0  0  0  0  0  0  0  0  0  0  0  0
   -7.4935    4.0833   17.4120 F   0  0  0  0  0  0  0  0  0  0  0  0
  5  6  2  0  0  0
  5 10  1  0  0  0
  6  7  1  0  0  0
  7  8  2  0  0  0
  7 11  1  0  0  0
  8  9  1  0  0  0
  9 10  2  0  0  0
 10  1  1  0  0  0
  1  2  2  0  0  0
  1  3  1  0  0  0
  3 17  1  0  0  0
 17 18  1  0  0  0
 11 12  1  0  0  0
 11 13  2  0  0  0
 11 14  2  0  0  0
 18 19  2  0  0  0
 18 23  1  0  0  0
 19 20  1  0  0  0
 19 24  1  0  0  0
 20 21  2  0  0  0
 21 22  1  0  0  0
 22 23  2  0  0  0
 23 25  1  0  0  0
  3  4  1  0  0  0
 12 15  1  0  0  0
 12 16  1  0  0  0
M  END
> <minimizedAffinity>
-6.92040

$$$$
1G48_F6B_A_555


 25 26  0  0  0  0  0  0  0  0999 V2000
   -6.1179    6.5519   14.2587 C   0  0  0  0  0  0  0  0  0  0  0  0
   -7.1519    6.3328   13.6317 O   0  0  0  0  0  0  0  0  0  0  0  0
   -5.6705    5.5405   15.1645 N   0  0  0  0  0  0  0  0  0  0  0  0
   -5.0670    5.7212   15.9210 H   0  0  0  0  0  0  0  0  0  0  0  0
   -5.9492    8.7519   12.9630 C   0  0  0  0  0  0  0  0  0  0  0  0
   -5.3265    9.9929   12.6988 C   0  0  0  0  0  0  0  0  0  0  0  0
   -4.1825   10.3927   13.4612 C   0  0  0  0  0  0  0  0  0  0  0  0
   -3.7340    9.5288   14.4563 C   0  0  0  0  0  0  0  0  0  0  0  0
   -4.3702    8.3145   14.6974 C   0  0  0  0  0  0  0  0  0  0  0  0
   -5.4714    7.9024   13.9652 C   0  0  0  0  0  0  0  0  0  0  0  0
   -3.3970   11.9725   13.0831 S   0  0  0  0  0  0  0  0  0  0  0  0
   -2.3861   11.8014   11.7454 N   0  0  0  0  0  0  0  0  0  0  0  0
   -2.7226   12.3016   14.3326 O   0  0  0  0  0  0  0  0  0  0  0  0
   -4.5418   12.8630   12.8723 O   0  0  0  0  0  0  0  0  0  0  0  0
   -1.6200   11.1690   11.9768 H   0  0  0  0  0  0  0  0  0  0  0  0
   -2.0083   12.7127   11.4860 H   0  0  0  0  0  0  0  0  0  0  0  0
   -6.1999    4.2030   14.8557 C   0  0  0  0  0  0  0  0  0  0  0  0
   -6.0565    3.1149   15.7383 C   0  0  0  0  0  0  0  0  0  0  0  0
   -6.7476    3.1425   16.9952 C   0  0  0  0  0  0  0  0  0  0  0  0
   -6.5885    2.0165   17.8895 C   0  0  0  0  0  0  0  0  0  0  0  0
   -5.7512    0.8936   17.5106 C   0  0  0  0  0  0  0  0  0  0  0  0
   -5.0671    0.8890   16.2423 C   0  0  0  0  0  0  0  0  0  0  0  0
   -5.2152    1.9912   15.3576 C   0  0  0  0  0  0  0  0  0  0  0  0
   -7.5199    4.1824   17.3385 F   0  0  0  0  0  0  0  0  0  0  0  0
   -4.5699    1.9637   14.1836 F   0  0  0  0  0  0  0  0  0  0  0  0
  5  6  2  0  0  0
  5 10  1  0  0  0
  6  7  1  0  0  0
  7  8  2  0  0  0
  7 11  1  0  0  0
  8  9  1  0  0  0
  9 10  2  0  0  0
 10  1  1  0  0  0
  1  2  2  0  0  0
  1  3  1  0  0  0
  3 17  1  0  0  0
 17 18  1  0  0  0
 11 12  1  0  0  0
 11 13  2  0  0  0
 11 14  2  0  0  0
 18 19  2  0  0  0
 18 23  1  0  0  0
 19 20  1  0  0  0
 19 24  1  0  0  0
 20 21  2  0  0  0
 21 22  1  0  0  0
 22 23  2  0  0  0
 23 25  1  0  0  0
  3  4  1  0  0  0
 12 15  1  0  0  0
 12 16  1  0  0  0
M  END
> <minimizedAffinity>
-6.90905

$$$$
