4ZX3_4TK_A_1102


 22 22  0  0  0  0  0  0  0  0999 V2000
   88.6543  120.4234   13.3283 C   0  0  0  0  0  0  0  0  0  0  0  0
   85.9640  120.2917   18.7927 Br  0  0  0  0  0  0  0  0  0  0  0  0
   88.0201  120.4621   14.5787 C   0  0  0  0  0  0  0  0  0  0  0  0
   88.1554  119.3479   15.3998 C   0  0  0  0  0  0  0  0  0  0  0  0
   87.5474  119.3029   16.6486 C   0  0  0  0  0  0  0  0  0  0  0  0
   86.7869  120.3794   17.0857 C   0  0  0  0  0  0  0  0  0  0  0  0
   86.6406  121.4980   16.2655 C   0  0  0  0  0  0  0  0  0  0  0  0
   87.2537  121.5422   15.0101 C   0  0  0  0  0  0  0  0  0  0  0  0
   87.7104  120.8988   12.2226 C   0  0  0  0  0  0  0  0  0  0  0  0
   86.4992  120.6914   12.2876 O   0  0  0  0  0  0  0  0  0  0  0  0
   88.3239  121.4925   11.1906 N   0  0  0  0  0  0  0  0  0  0  0  0
   87.5125  121.9522   10.1151 O   0  0  0  0  0  0  0  0  0  0  0  0
   89.3016  121.6070   11.1764 H   0  0  0  0  0  0  0  0  0  0  0  0
   86.5820  121.7537   10.3042 H   0  0  0  0  0  0  0  0  0  0  0  0
   89.1729  119.1103   12.9074 N   0  0  0  0  0  0  0  0  0  0  0  0
   90.3794  119.0232   12.3282 C   0  0  0  0  0  0  0  0  0  0  0  0
   91.1231  119.9903   12.1802 O   0  0  0  0  0  0  0  0  0  0  0  0
   88.6349  118.2984   13.0510 H   0  0  0  0  0  0  0  0  0  0  0  0
   90.7909  117.6348   11.8255 C   0  0  0  0  0  0  0  0  0  0  0  0
   90.0004  116.5534   12.5651 C   0  0  0  0  0  0  0  0  0  0  0  0
   90.5588  117.5202   10.3176 C   0  0  0  0  0  0  0  0  0  0  0  0
   92.2805  117.4429   12.1289 C   0  0  0  0  0  0  0  0  0  0  0  0
 22 19  1  0  0  0
 12 11  1  0  0  0
 11  9  1  0  0  0
 19 20  1  0  0  0
 19 16  1  0  0  0
 19 21  1  0  0  0
 10  9  2  0  0  0
  9  1  1  0  0  0
 16 17  2  0  0  0
 16 15  1  0  0  0
 15  1  1  0  0  0
  1  3  1  0  0  0
  3  4  2  0  0  0
  3  8  1  0  0  0
  4  5  1  0  0  0
  8  7  2  0  0  0
  5  6  2  0  0  0
  7  6  1  0  0  0
  6  2  1  0  0  0
 15 18  1  0  0  0
 11 13  1  0  0  0
 12 14  1  0  0  0
M  END
> <minimizedAffinity>
-9.36325

$$$$
4ZX3_4TK_A_1102


 22 22  0  0  0  0  0  0  0  0999 V2000
   89.2181  120.1913   12.3895 C   0  0  0  0  0  0  0  0  0  0  0  0
   87.0195  119.4771   18.0260 Br  0  0  0  0  0  0  0  0  0  0  0  0
   88.7165  119.9566   13.6781 C   0  0  0  0  0  0  0  0  0  0  0  0
   88.1995  121.0453   14.3718 C   0  0  0  0  0  0  0  0  0  0  0  0
   87.6948  120.8983   15.6583 C   0  0  0  0  0  0  0  0  0  0  0  0
   87.7107  119.6508   16.2680 C   0  0  0  0  0  0  0  0  0  0  0  0
   88.2338  118.5549   15.5816 C   0  0  0  0  0  0  0  0  0  0  0  0
   88.7400  118.7042   14.2873 C   0  0  0  0  0  0  0  0  0  0  0  0
   88.1111  120.6783   11.4531 C   0  0  0  0  0  0  0  0  0  0  0  0
   87.0278  120.0976   11.3931 O   0  0  0  0  0  0  0  0  0  0  0  0
   88.4516  121.7286   10.6951 N   0  0  0  0  0  0  0  0  0  0  0  0
   87.4769  122.2327    9.7882 O   0  0  0  0  0  0  0  0  0  0  0  0
   89.3445  122.1377   10.7627 H   0  0  0  0  0  0  0  0  0  0  0  0
   86.6649  121.7072    9.8612 H   0  0  0  0  0  0  0  0  0  0  0  0
   89.8592  119.0425   11.7266 N   0  0  0  0  0  0  0  0  0  0  0  0
   90.8094  119.2492   10.8029 C   0  0  0  0  0  0  0  0  0  0  0  0
   91.2314  120.3667   10.5141 O   0  0  0  0  0  0  0  0  0  0  0  0
   89.5906  118.1248   11.9611 H   0  0  0  0  0  0  0  0  0  0  0  0
   91.3428  118.0021   10.0888 C   0  0  0  0  0  0  0  0  0  0  0  0
   90.6468  116.7507   10.6281 C   0  0  0  0  0  0  0  0  0  0  0  0
   91.1281  118.1163    8.5784 C   0  0  0  0  0  0  0  0  0  0  0  0
   92.8423  117.8914   10.3845 C   0  0  0  0  0  0  0  0  0  0  0  0
 22 19  1  0  0  0
 12 11  1  0  0  0
 11  9  1  0  0  0
 19 20  1  0  0  0
 19 16  1  0  0  0
 19 21  1  0  0  0
 10  9  2  0  0  0
  9  1  1  0  0  0
 16 17  2  0  0  0
 16 15  1  0  0  0
 15  1  1  0  0  0
  1  3  1  0  0  0
  3  4  2  0  0  0
  3  8  1  0  0  0
  4  5  1  0  0  0
  8  7  2  0  0  0
  5  6  2  0  0  0
  7  6  1  0  0  0
  6  2  1  0  0  0
 15 18  1  0  0  0
 11 13  1  0  0  0
 12 14  1  0  0  0
M  END
> <minimizedAffinity>
-8.56196

$$$$
4ZX3_4TK_A_1102


 22 22  0  0  0  0  0  0  0  0999 V2000
   89.7511  119.5836   11.6339 C   0  0  0  0  0  0  0  0  0  0  0  0
   88.3778  117.0561   17.0042 Br  0  0  0  0  0  0  0  0  0  0  0  0
   89.4122  119.0653   12.8924 C   0  0  0  0  0  0  0  0  0  0  0  0
   89.8344  117.7736   13.1873 C   0  0  0  0  0  0  0  0  0  0  0  0
   89.5286  117.1833   14.4078 C   0  0  0  0  0  0  0  0  0  0  0  0
   88.7853  117.8853   15.3474 C   0  0  0  0  0  0  0  0  0  0  0  0
   88.3522  119.1790   15.0568 C   0  0  0  0  0  0  0  0  0  0  0  0
   88.6615  119.7716   13.8292 C   0  0  0  0  0  0  0  0  0  0  0  0
   88.5346  120.2206   10.9603 C   0  0  0  0  0  0  0  0  0  0  0  0
   87.5407  119.5518   10.6786 O   0  0  0  0  0  0  0  0  0  0  0  0
   88.6811  121.5200   10.6709 N   0  0  0  0  0  0  0  0  0  0  0  0
   87.5948  122.1812   10.0311 O   0  0  0  0  0  0  0  0  0  0  0  0
   89.5110  122.0010   10.8928 H   0  0  0  0  0  0  0  0  0  0  0  0
   86.8693  121.5523    9.8936 H   0  0  0  0  0  0  0  0  0  0  0  0
   90.3147  118.6228   10.6699 N   0  0  0  0  0  0  0  0  0  0  0  0
   91.1571  119.0487    9.7172 C   0  0  0  0  0  0  0  0  0  0  0  0
   91.5450  120.2121    9.6369 O   0  0  0  0  0  0  0  0  0  0  0  0
   90.0735  117.6699   10.7250 H   0  0  0  0  0  0  0  0  0  0  0  0
   91.6082  118.0006    8.6937 C   0  0  0  0  0  0  0  0  0  0  0  0
   90.4615  117.0329    8.3935 C   0  0  0  0  0  0  0  0  0  0  0  0
   92.0787  118.6777    7.4050 C   0  0  0  0  0  0  0  0  0  0  0  0
   92.7673  117.2075    9.3064 C   0  0  0  0  0  0  0  0  0  0  0  0
 22 19  1  0  0  0
 12 11  1  0  0  0
 11  9  1  0  0  0
 19 20  1  0  0  0
 19 16  1  0  0  0
 19 21  1  0  0  0
 10  9  2  0  0  0
  9  1  1  0  0  0
 16 17  2  0  0  0
 16 15  1  0  0  0
 15  1  1  0  0  0
  1  3  1  0  0  0
  3  4  2  0  0  0
  3  8  1  0  0  0
  4  5  1  0  0  0
  8  7  2  0  0  0
  5  6  2  0  0  0
  7  6  1  0  0  0
  6  2  1  0  0  0
 15 18  1  0  0  0
 11 13  1  0  0  0
 12 14  1  0  0  0
M  END
> <minimizedAffinity>
-7.72592

$$$$
4ZX3_4TK_A_1102


 22 22  0  0  0  0  0  0  0  0999 V2000
   89.3619  119.5608   12.7869 C   0  0  0  0  0  0  0  0  0  0  0  0
   86.6003  120.4080   18.1507 Br  0  0  0  0  0  0  0  0  0  0  0  0
   88.7200  119.6853   14.0277 C   0  0  0  0  0  0  0  0  0  0  0  0
   88.3286  120.9606   14.4207 C   0  0  0  0  0  0  0  0  0  0  0  0
   87.6981  121.1698   15.6414 C   0  0  0  0  0  0  0  0  0  0  0  0
   87.4590  120.0956   16.4883 C   0  0  0  0  0  0  0  0  0  0  0  0
   87.8545  118.8142   16.1046 C   0  0  0  0  0  0  0  0  0  0  0  0
   88.4876  118.6053   14.8760 C   0  0  0  0  0  0  0  0  0  0  0  0
   88.5835  120.2944   11.6936 C   0  0  0  0  0  0  0  0  0  0  0  0
   89.1278  120.6320   10.6428 O   0  0  0  0  0  0  0  0  0  0  0  0
   87.3116  120.5689   12.0110 N   0  0  0  0  0  0  0  0  0  0  0  0
   86.5249  121.2618   11.0480 O   0  0  0  0  0  0  0  0  0  0  0  0
   86.9340  120.3008   12.8798 H   0  0  0  0  0  0  0  0  0  0  0  0
   87.0618  121.4409   10.2602 H   0  0  0  0  0  0  0  0  0  0  0  0
   89.5750  118.1850   12.3050 N   0  0  0  0  0  0  0  0  0  0  0  0
   90.8204  117.7430   12.0761 C   0  0  0  0  0  0  0  0  0  0  0  0
   91.8232  118.4140   12.3095 O   0  0  0  0  0  0  0  0  0  0  0  0
   88.8048  117.5914   12.1513 H   0  0  0  0  0  0  0  0  0  0  0  0
   90.9408  116.3384   11.4742 C   0  0  0  0  0  0  0  0  0  0  0  0
   89.9714  115.3831   12.1735 C   0  0  0  0  0  0  0  0  0  0  0  0
   90.6561  116.3730    9.9714 C   0  0  0  0  0  0  0  0  0  0  0  0
   92.3708  115.8417   11.7117 C   0  0  0  0  0  0  0  0  0  0  0  0
 22 19  1  0  0  0
 12 11  1  0  0  0
 11  9  1  0  0  0
 19 20  1  0  0  0
 19 16  1  0  0  0
 19 21  1  0  0  0
 10  9  2  0  0  0
  9  1  1  0  0  0
 16 17  2  0  0  0
 16 15  1  0  0  0
 15  1  1  0  0  0
  1  3  1  0  0  0
  3  4  2  0  0  0
  3  8  1  0  0  0
  4  5  1  0  0  0
  8  7  2  0  0  0
  5  6  2  0  0  0
  7  6  1  0  0  0
  6  2  1  0  0  0
 15 18  1  0  0  0
 11 13  1  0  0  0
 12 14  1  0  0  0
M  END
> <minimizedAffinity>
-7.60897

$$$$
4ZX3_4TK_A_1102


 22 22  0  0  0  0  0  0  0  0999 V2000
   90.4530  116.7620   12.8026 C   0  0  0  0  0  0  0  0  0  0  0  0
   87.0427  121.2981   15.0182 Br  0  0  0  0  0  0  0  0  0  0  0  0
   89.6991  117.8501   13.2662 C   0  0  0  0  0  0  0  0  0  0  0  0
   88.9554  117.6653   14.4267 C   0  0  0  0  0  0  0  0  0  0  0  0
   88.1724  118.6903   14.9440 C   0  0  0  0  0  0  0  0  0  0  0  0
   88.1220  119.9163   14.2940 C   0  0  0  0  0  0  0  0  0  0  0  0
   88.8596  120.1077   13.1256 C   0  0  0  0  0  0  0  0  0  0  0  0
   89.6475  119.0761   12.6072 C   0  0  0  0  0  0  0  0  0  0  0  0
   91.8604  116.7785   13.4012 C   0  0  0  0  0  0  0  0  0  0  0  0
   92.0759  116.3418   14.5314 O   0  0  0  0  0  0  0  0  0  0  0  0
   92.7867  117.3464   12.6182 N   0  0  0  0  0  0  0  0  0  0  0  0
   94.1204  117.4103   13.1120 O   0  0  0  0  0  0  0  0  0  0  0  0
   92.5536  117.7070   11.7323 H   0  0  0  0  0  0  0  0  0  0  0  0
   94.1582  117.0085   13.9940 H   0  0  0  0  0  0  0  0  0  0  0  0
   90.6149  116.6640   11.3416 N   0  0  0  0  0  0  0  0  0  0  0  0
   90.5268  115.4693   10.7385 C   0  0  0  0  0  0  0  0  0  0  0  0
   90.2506  114.4338   11.3400 O   0  0  0  0  0  0  0  0  0  0  0  0
   90.7873  117.4738   10.8090 H   0  0  0  0  0  0  0  0  0  0  0  0
   90.8156  115.4473    9.2333 C   0  0  0  0  0  0  0  0  0  0  0  0
   90.1752  114.2132    8.5942 C   0  0  0  0  0  0  0  0  0  0  0  0
   90.2886  116.7201    8.5678 C   0  0  0  0  0  0  0  0  0  0  0  0
   92.3336  115.3624    9.0428 C   0  0  0  0  0  0  0  0  0  0  0  0
 22 19  1  0  0  0
 12 11  1  0  0  0
 11  9  1  0  0  0
 19 20  1  0  0  0
 19 16  1  0  0  0
 19 21  1  0  0  0
 10  9  2  0  0  0
  9  1  1  0  0  0
 16 17  2  0  0  0
 16 15  1  0  0  0
 15  1  1  0  0  0
  1  3  1  0  0  0
  3  4  2  0  0  0
  3  8  1  0  0  0
  4  5  1  0  0  0
  8  7  2  0  0  0
  5  6  2  0  0  0
  7  6  1  0  0  0
  6  2  1  0  0  0
 15 18  1  0  0  0
 11 13  1  0  0  0
 12 14  1  0  0  0
M  END
> <minimizedAffinity>
-7.43148

$$$$
4ZX3_4TK_A_1102


 22 22  0  0  0  0  0  0  0  0999 V2000
   90.3359  116.6778   12.9783 C   0  0  0  0  0  0  0  0  0  0  0  0
   87.1000  121.4494   14.9472 Br  0  0  0  0  0  0  0  0  0  0  0  0
   89.5598  117.7334   13.4789 C   0  0  0  0  0  0  0  0  0  0  0  0
   89.5680  118.9277   12.7665 C   0  0  0  0  0  0  0  0  0  0  0  0
   88.8354  120.0250   13.2032 C   0  0  0  0  0  0  0  0  0  0  0  0
   88.0883  119.9363   14.3703 C   0  0  0  0  0  0  0  0  0  0  0  0
   88.0801  118.7442   15.0945 C   0  0  0  0  0  0  0  0  0  0  0  0
   88.8166  117.6412   14.6533 C   0  0  0  0  0  0  0  0  0  0  0  0
   91.7174  116.6570   13.6344 C   0  0  0  0  0  0  0  0  0  0  0  0
   91.8971  116.1084   14.7212 O   0  0  0  0  0  0  0  0  0  0  0  0
   92.6614  117.3206   12.9546 N   0  0  0  0  0  0  0  0  0  0  0  0
   93.9724  117.3566   13.5083 O   0  0  0  0  0  0  0  0  0  0  0  0
   92.4560  117.7677   12.1019 H   0  0  0  0  0  0  0  0  0  0  0  0
   93.9838  116.8654   14.3446 H   0  0  0  0  0  0  0  0  0  0  0  0
   90.5581  116.6735   11.5220 N   0  0  0  0  0  0  0  0  0  0  0  0
   90.5013  115.5194   10.8411 C   0  0  0  0  0  0  0  0  0  0  0  0
   90.2061  114.4469   11.3637 O   0  0  0  0  0  0  0  0  0  0  0  0
   90.7480  117.5161   11.0495 H   0  0  0  0  0  0  0  0  0  0  0  0
   90.8517  115.5941    9.3507 C   0  0  0  0  0  0  0  0  0  0  0  0
   90.2918  114.3729    8.6183 C   0  0  0  0  0  0  0  0  0  0  0  0
   90.2976  116.8798    8.7337 C   0  0  0  0  0  0  0  0  0  0  0  0
   92.3784  115.5824    9.2214 C   0  0  0  0  0  0  0  0  0  0  0  0
 22 19  1  0  0  0
 12 11  1  0  0  0
 11  9  1  0  0  0
 19 20  1  0  0  0
 19 16  1  0  0  0
 19 21  1  0  0  0
 10  9  2  0  0  0
  9  1  1  0  0  0
 16 17  2  0  0  0
 16 15  1  0  0  0
 15  1  1  0  0  0
  1  3  1  0  0  0
  3  4  2  0  0  0
  3  8  1  0  0  0
  4  5  1  0  0  0
  8  7  2  0  0  0
  5  6  2  0  0  0
  7  6  1  0  0  0
  6  2  1  0  0  0
 15 18  1  0  0  0
 11 13  1  0  0  0
 12 14  1  0  0  0
M  END
> <minimizedAffinity>
-7.33025

$$$$
4ZX3_4TK_A_1102


 22 22  0  0  0  0  0  0  0  0999 V2000
   90.4220  117.3573   10.0043 C   0  0  0  0  0  0  0  0  0  0  0  0
   91.5670  113.2018    5.6990 Br  0  0  0  0  0  0  0  0  0  0  0  0
   90.6780  116.4517    8.9643 C   0  0  0  0  0  0  0  0  0  0  0  0
   90.7226  115.1002    9.2890 C   0  0  0  0  0  0  0  0  0  0  0  0
   90.9830  114.1406    8.3181 C   0  0  0  0  0  0  0  0  0  0  0  0
   91.2098  114.5306    7.0049 C   0  0  0  0  0  0  0  0  0  0  0  0
   91.1736  115.8847    6.6721 C   0  0  0  0  0  0  0  0  0  0  0  0
   90.9104  116.8486    7.6496 C   0  0  0  0  0  0  0  0  0  0  0  0
   91.5159  118.4235   10.0813 C   0  0  0  0  0  0  0  0  0  0  0  0
   92.6621  118.1351   10.4241 O   0  0  0  0  0  0  0  0  0  0  0  0
   91.0979  119.6646    9.8006 N   0  0  0  0  0  0  0  0  0  0  0  0
   92.0568  120.7148    9.8629 O   0  0  0  0  0  0  0  0  0  0  0  0
   90.1604  119.8442    9.5597 H   0  0  0  0  0  0  0  0  0  0  0  0
   92.9198  120.3502   10.1144 H   0  0  0  0  0  0  0  0  0  0  0  0
   90.3013  116.7756   11.3524 N   0  0  0  0  0  0  0  0  0  0  0  0
   89.7041  117.4733   12.3298 C   0  0  0  0  0  0  0  0  0  0  0  0
   89.1834  118.5715   12.1473 O   0  0  0  0  0  0  0  0  0  0  0  0
   90.6583  115.8766   11.5354 H   0  0  0  0  0  0  0  0  0  0  0  0
   89.7199  116.8362   13.7239 C   0  0  0  0  0  0  0  0  0  0  0  0
   91.1578  116.7316   14.2367 C   0  0  0  0  0  0  0  0  0  0  0  0
   88.8705  117.6556   14.6973 C   0  0  0  0  0  0  0  0  0  0  0  0
   89.1406  115.4226   13.6058 C   0  0  0  0  0  0  0  0  0  0  0  0
 22 19  1  0  0  0
 12 11  1  0  0  0
 11  9  1  0  0  0
 19 20  1  0  0  0
 19 16  1  0  0  0
 19 21  1  0  0  0
 10  9  2  0  0  0
  9  1  1  0  0  0
 16 17  2  0  0  0
 16 15  1  0  0  0
 15  1  1  0  0  0
  1  3  1  0  0  0
  3  4  2  0  0  0
  3  8  1  0  0  0
  4  5  1  0  0  0
  8  7  2  0  0  0
  5  6  2  0  0  0
  7  6  1  0  0  0
  6  2  1  0  0  0
 15 18  1  0  0  0
 11 13  1  0  0  0
 12 14  1  0  0  0
M  END
> <minimizedAffinity>
-7.15780

$$$$
4ZX3_4TK_A_1102


 22 22  0  0  0  0  0  0  0  0999 V2000
   91.6093  118.3191   11.2125 C   0  0  0  0  0  0  0  0  0  0  0  0
   90.7516  114.7703   16.0895 Br  0  0  0  0  0  0  0  0  0  0  0  0
   91.3418  117.5067   12.3241 C   0  0  0  0  0  0  0  0  0  0  0  0
   92.4042  117.2115   13.1716 C   0  0  0  0  0  0  0  0  0  0  0  0
   92.2244  116.4032   14.2876 C   0  0  0  0  0  0  0  0  0  0  0  0
   90.9703  115.8739   14.5621 C   0  0  0  0  0  0  0  0  0  0  0  0
   89.9008  116.1596   13.7134 C   0  0  0  0  0  0  0  0  0  0  0  0
   90.0832  116.9737   12.5919 C   0  0  0  0  0  0  0  0  0  0  0  0
   90.8550  119.6460   11.3120 C   0  0  0  0  0  0  0  0  0  0  0  0
   91.0477  120.4183   12.2505 O   0  0  0  0  0  0  0  0  0  0  0  0
   89.9579  119.8453   10.3378 N   0  0  0  0  0  0  0  0  0  0  0  0
   89.2063  121.0539   10.3686 O   0  0  0  0  0  0  0  0  0  0  0  0
   89.8228  119.1794    9.6253 H   0  0  0  0  0  0  0  0  0  0  0  0
   89.4743  121.5818   11.1371 H   0  0  0  0  0  0  0  0  0  0  0  0
   91.2813  117.7425    9.8971 N   0  0  0  0  0  0  0  0  0  0  0  0
   92.2363  117.1361    9.1768 C   0  0  0  0  0  0  0  0  0  0  0  0
   93.3836  116.9742    9.5865 O   0  0  0  0  0  0  0  0  0  0  0  0
   90.3629  117.8023    9.5476 H   0  0  0  0  0  0  0  0  0  0  0  0
   91.8308  116.6625    7.7765 C   0  0  0  0  0  0  0  0  0  0  0  0
   92.7456  115.5231    7.3225 C   0  0  0  0  0  0  0  0  0  0  0  0
   90.3714  116.2033    7.7677 C   0  0  0  0  0  0  0  0  0  0  0  0
   92.0016  117.8392    6.8100 C   0  0  0  0  0  0  0  0  0  0  0  0
 22 19  1  0  0  0
 12 11  1  0  0  0
 11  9  1  0  0  0
 19 20  1  0  0  0
 19 16  1  0  0  0
 19 21  1  0  0  0
 10  9  2  0  0  0
  9  1  1  0  0  0
 16 17  2  0  0  0
 16 15  1  0  0  0
 15  1  1  0  0  0
  1  3  1  0  0  0
  3  4  2  0  0  0
  3  8  1  0  0  0
  4  5  1  0  0  0
  8  7  2  0  0  0
  5  6  2  0  0  0
  7  6  1  0  0  0
  6  2  1  0  0  0
 15 18  1  0  0  0
 11 13  1  0  0  0
 12 14  1  0  0  0
M  END
> <minimizedAffinity>
-7.13330

$$$$
4ZX3_4TK_A_1102


 22 22  0  0  0  0  0  0  0  0999 V2000
   88.5083  119.4473   12.8648 C   0  0  0  0  0  0  0  0  0  0  0  0
   93.6455  116.1724   12.8512 Br  0  0  0  0  0  0  0  0  0  0  0  0
   89.7161  118.7363   12.8109 C   0  0  0  0  0  0  0  0  0  0  0  0
   89.7816  117.5325   13.5041 C   0  0  0  0  0  0  0  0  0  0  0  0
   90.9465  116.7746   13.5108 C   0  0  0  0  0  0  0  0  0  0  0  0
   92.0664  117.2234   12.8234 C   0  0  0  0  0  0  0  0  0  0  0  0
   92.0112  118.4332   12.1312 C   0  0  0  0  0  0  0  0  0  0  0  0
   90.8385  119.1938   12.1246 C   0  0  0  0  0  0  0  0  0  0  0  0
   88.2216  120.1380   11.5306 C   0  0  0  0  0  0  0  0  0  0  0  0
   88.1432  119.4939   10.4849 O   0  0  0  0  0  0  0  0  0  0  0  0
   88.1236  121.4714   11.6091 N   0  0  0  0  0  0  0  0  0  0  0  0
   87.8694  122.1874   10.4052 O   0  0  0  0  0  0  0  0  0  0  0  0
   88.2239  121.9400   12.4691 H   0  0  0  0  0  0  0  0  0  0  0  0
   87.8015  121.5631    9.6659 H   0  0  0  0  0  0  0  0  0  0  0  0
   88.4148  120.4838   13.9074 N   0  0  0  0  0  0  0  0  0  0  0  0
   87.9623  120.1637   15.1287 C   0  0  0  0  0  0  0  0  0  0  0  0
   87.6722  119.0152   15.4561 O   0  0  0  0  0  0  0  0  0  0  0  0
   88.6839  121.4096   13.7081 H   0  0  0  0  0  0  0  0  0  0  0  0
   87.7966  121.3248   16.1157 C   0  0  0  0  0  0  0  0  0  0  0  0
   88.5275  121.0107   17.4227 C   0  0  0  0  0  0  0  0  0  0  0  0
   88.3323  122.6236   15.5100 C   0  0  0  0  0  0  0  0  0  0  0  0
   86.3025  121.4806   16.4180 C   0  0  0  0  0  0  0  0  0  0  0  0
 22 19  1  0  0  0
 12 11  1  0  0  0
 11  9  1  0  0  0
 19 20  1  0  0  0
 19 16  1  0  0  0
 19 21  1  0  0  0
 10  9  2  0  0  0
  9  1  1  0  0  0
 16 17  2  0  0  0
 16 15  1  0  0  0
 15  1  1  0  0  0
  1  3  1  0  0  0
  3  4  2  0  0  0
  3  8  1  0  0  0
  4  5  1  0  0  0
  8  7  2  0  0  0
  5  6  2  0  0  0
  7  6  1  0  0  0
  6  2  1  0  0  0
 15 18  1  0  0  0
 11 13  1  0  0  0
 12 14  1  0  0  0
M  END
> <minimizedAffinity>
-6.95851

$$$$
4ZX3_4TK_A_1102


 22 22  0  0  0  0  0  0  0  0999 V2000
   90.5833  118.4666   11.9942 C   0  0  0  0  0  0  0  0  0  0  0  0
   90.7246  114.6224   16.7183 Br  0  0  0  0  0  0  0  0  0  0  0  0
   90.5468  117.5948   13.0923 C   0  0  0  0  0  0  0  0  0  0  0  0
   91.7617  117.1131   13.5677 C   0  0  0  0  0  0  0  0  0  0  0  0
   91.8100  116.2353   14.6441 C   0  0  0  0  0  0  0  0  0  0  0  0
   90.6320  115.8240   15.2533 C   0  0  0  0  0  0  0  0  0  0  0  0
   89.4088  116.2972   14.7783 C   0  0  0  0  0  0  0  0  0  0  0  0
   89.3619  117.1809   13.6963 C   0  0  0  0  0  0  0  0  0  0  0  0
   89.3920  119.4256   12.0188 C   0  0  0  0  0  0  0  0  0  0  0  0
   89.1973  120.1736   12.9764 O   0  0  0  0  0  0  0  0  0  0  0  0
   88.5841  119.3297   10.9549 N   0  0  0  0  0  0  0  0  0  0  0  0
   87.4451  120.1825   10.9110 O   0  0  0  0  0  0  0  0  0  0  0  0
   88.7713  118.6918   10.2288 H   0  0  0  0  0  0  0  0  0  0  0  0
   87.4258  120.7374   11.7064 H   0  0  0  0  0  0  0  0  0  0  0  0
   90.5888  117.8315   10.6650 N   0  0  0  0  0  0  0  0  0  0  0  0
   91.7182  117.8052    9.9421 C   0  0  0  0  0  0  0  0  0  0  0  0
   92.7911  118.2355   10.3593 O   0  0  0  0  0  0  0  0  0  0  0  0
   89.7652  117.4272   10.3081 H   0  0  0  0  0  0  0  0  0  0  0  0
   91.6048  117.2216    8.5292 C   0  0  0  0  0  0  0  0  0  0  0  0
   90.2031  116.6490    8.3090 C   0  0  0  0  0  0  0  0  0  0  0  0
   91.9079  118.2937    7.4807 C   0  0  0  0  0  0  0  0  0  0  0  0
   92.6219  116.0825    8.4035 C   0  0  0  0  0  0  0  0  0  0  0  0
 22 19  1  0  0  0
 12 11  1  0  0  0
 11  9  1  0  0  0
 19 20  1  0  0  0
 19 16  1  0  0  0
 19 21  1  0  0  0
 10  9  2  0  0  0
  9  1  1  0  0  0
 16 17  2  0  0  0
 16 15  1  0  0  0
 15  1  1  0  0  0
  1  3  1  0  0  0
  3  4  2  0  0  0
  3  8  1  0  0  0
  4  5  1  0  0  0
  8  7  2  0  0  0
  5  6  2  0  0  0
  7  6  1  0  0  0
  6  2  1  0  0  0
 15 18  1  0  0  0
 11 13  1  0  0  0
 12 14  1  0  0  0
M  END
> <minimizedAffinity>
-6.84447

$$$$
