4XAR_40F_A_601


 17 18  0  0  0  0  0  0  0  0999 V2000
   52.3247  -25.0290    8.9544 C   0  0  0  0  0  0  0  0  0  0  0  0
   52.4371  -25.8603   10.2400 C   0  0  0  0  0  0  0  0  0  0  0  0
   51.1113  -25.5899    8.1411 C   0  0  0  0  0  0  0  0  0  0  0  0
   51.0972  -26.5408   10.4004 C   0  0  0  0  0  0  0  0  0  0  0  0
   49.8789  -25.6135   10.3998 C   0  0  0  0  0  0  0  0  0  0  0  0
   50.2765  -26.3733    9.1340 C   0  0  0  0  0  0  0  0  0  0  0  0
   50.3542  -24.5180    7.4410 N   0  0  0  0  0  0  0  0  0  0  0  0
   49.5764  -24.9315    6.9268 H   0  0  0  0  0  0  0  0  0  0  0  0
   50.9730  -24.0342    6.7902 H   0  0  0  0  0  0  0  0  0  0  0  0
   50.8518  -26.9790    6.0725 O   0  0  0  0  0  0  0  0  0  0  0  0
   51.6086  -26.5848    7.1087 C   0  0  0  0  0  0  0  0  0  0  0  0
   52.6960  -27.0849    7.1944 O   0  0  0  0  0  0  0  0  0  0  0  0
   49.9936  -26.6213    5.9563 H   0  0  0  0  0  0  0  0  0  0  0  0
   47.5449  -25.6809   10.5453 O   0  0  0  0  0  0  0  0  0  0  0  0
   48.6734  -26.0676   11.1136 C   0  0  0  0  0  0  0  0  0  0  0  0
   48.6235  -26.7190   12.1051 O   0  0  0  0  0  0  0  0  0  0  0  0
   47.5668  -25.1664    9.7625 H   0  0  0  0  0  0  0  0  0  0  0  0
 12 11  2  0  0  0
  7  3  1  0  0  0
 11  3  1  0  0  0
 11 10  1  0  0  0
  3  6  1  0  0  0
  3  1  1  0  0  0
  6  5  1  0  0  0
  6  4  1  0  0  0
  1  2  1  0  0  0
  5 15  1  0  0  0
  5  4  1  0  0  0
 15 16  2  0  0  0
 15 14  1  0  0  0
  4  2  1  0  0  0
 10 13  1  0  0  0
 14 17  1  0  0  0
  7  8  1  0  0  0
  7  9  1  0  0  0
M  END
> <minimizedAffinity>
-9.18646

$$$$
4XAR_40F_A_601


 17 18  0  0  0  0  0  0  0  0999 V2000
   51.1463  -26.5180   11.1456 C   0  0  0  0  0  0  0  0  0  0  0  0
   52.3530  -25.7387   10.6040 C   0  0  0  0  0  0  0  0  0  0  0  0
   49.9287  -26.1964   10.2171 C   0  0  0  0  0  0  0  0  0  0  0  0
   51.9922  -25.3701    9.1835 C   0  0  0  0  0  0  0  0  0  0  0  0
   51.5866  -26.5369    8.2788 C   0  0  0  0  0  0  0  0  0  0  0  0
   50.5221  -25.6549    8.9321 C   0  0  0  0  0  0  0  0  0  0  0  0
   49.0437  -27.3745   10.0146 N   0  0  0  0  0  0  0  0  0  0  0  0
   48.2678  -27.1161    9.4050 H   0  0  0  0  0  0  0  0  0  0  0  0
   48.6795  -27.6850   10.9153 H   0  0  0  0  0  0  0  0  0  0  0  0
   49.5522  -23.8076   10.8713 O   0  0  0  0  0  0  0  0  0  0  0  0
   49.1088  -25.0737   10.8256 C   0  0  0  0  0  0  0  0  0  0  0  0
   48.0351  -25.2800   11.3202 O   0  0  0  0  0  0  0  0  0  0  0  0
   50.3844  -23.5890   10.5004 H   0  0  0  0  0  0  0  0  0  0  0  0
   52.8859  -26.9910    6.3870 O   0  0  0  0  0  0  0  0  0  0  0  0
   51.7986  -26.3842    6.8295 C   0  0  0  0  0  0  0  0  0  0  0  0
   51.1152  -25.7952    6.0576 O   0  0  0  0  0  0  0  0  0  0  0  0
   53.4360  -27.4602    6.9830 H   0  0  0  0  0  0  0  0  0  0  0  0
 12 11  2  0  0  0
  7  3  1  0  0  0
 11  3  1  0  0  0
 11 10  1  0  0  0
  3  6  1  0  0  0
  3  1  1  0  0  0
  6  5  1  0  0  0
  6  4  1  0  0  0
  1  2  1  0  0  0
  5 15  1  0  0  0
  5  4  1  0  0  0
 15 16  2  0  0  0
 15 14  1  0  0  0
  4  2  1  0  0  0
 10 13  1  0  0  0
 14 17  1  0  0  0
  7  8  1  0  0  0
  7  9  1  0  0  0
M  END
> <minimizedAffinity>
-8.25881

$$$$
4XAR_40F_A_601


 17 18  0  0  0  0  0  0  0  0999 V2000
   51.7479  -24.4143    9.0200 C   0  0  0  0  0  0  0  0  0  0  0  0
   52.8031  -25.1062    9.8944 C   0  0  0  0  0  0  0  0  0  0  0  0
   50.7099  -25.5040    8.5918 C   0  0  0  0  0  0  0  0  0  0  0  0
   52.1687  -26.4015   10.3456 C   0  0  0  0  0  0  0  0  0  0  0  0
   50.8144  -26.2669   11.0472 C   0  0  0  0  0  0  0  0  0  0  0  0
   50.8879  -26.6490    9.5685 C   0  0  0  0  0  0  0  0  0  0  0  0
   49.3209  -24.9747    8.5411 N   0  0  0  0  0  0  0  0  0  0  0  0
   48.6835  -25.7192    8.2584 H   0  0  0  0  0  0  0  0  0  0  0  0
   49.2724  -24.2112    7.8665 H   0  0  0  0  0  0  0  0  0  0  0  0
   50.7012  -25.4230    6.0880 O   0  0  0  0  0  0  0  0  0  0  0  0
   51.0740  -26.0408    7.2199 C   0  0  0  0  0  0  0  0  0  0  0  0
   51.6897  -27.0626    7.0907 O   0  0  0  0  0  0  0  0  0  0  0  0
   50.2181  -24.6212    6.1291 H   0  0  0  0  0  0  0  0  0  0  0  0
   50.8239  -27.0798   13.2409 O   0  0  0  0  0  0  0  0  0  0  0  0
   50.4313  -27.3204   12.0023 C   0  0  0  0  0  0  0  0  0  0  0  0
   49.8300  -28.3184   11.7739 O   0  0  0  0  0  0  0  0  0  0  0  0
   51.2994  -26.2968   13.4379 H   0  0  0  0  0  0  0  0  0  0  0  0
 12 11  2  0  0  0
  7  3  1  0  0  0
 11  3  1  0  0  0
 11 10  1  0  0  0
  3  6  1  0  0  0
  3  1  1  0  0  0
  6  5  1  0  0  0
  6  4  1  0  0  0
  1  2  1  0  0  0
  5 15  1  0  0  0
  5  4  1  0  0  0
 15 16  2  0  0  0
 15 14  1  0  0  0
  4  2  1  0  0  0
 10 13  1  0  0  0
 14 17  1  0  0  0
  7  8  1  0  0  0
  7  9  1  0  0  0
M  END
> <minimizedAffinity>
-8.22052

$$$$
4XAR_40F_A_601


 17 18  0  0  0  0  0  0  0  0999 V2000
   50.1112  -26.4891   11.2755 C   0  0  0  0  0  0  0  0  0  0  0  0
   50.3270  -27.7647   10.4491 C   0  0  0  0  0  0  0  0  0  0  0  0
   51.2118  -25.4633   10.8456 C   0  0  0  0  0  0  0  0  0  0  0  0
   51.1862  -27.3476    9.2779 C   0  0  0  0  0  0  0  0  0  0  0  0
   50.6465  -26.1845    8.4411 C   0  0  0  0  0  0  0  0  0  0  0  0
   51.7212  -25.9444    9.5019 C   0  0  0  0  0  0  0  0  0  0  0  0
   50.7061  -24.0647   10.8252 N   0  0  0  0  0  0  0  0  0  0  0  0
   51.4569  -23.4358   10.5403 H   0  0  0  0  0  0  0  0  0  0  0  0
   50.3819  -23.8068   11.7573 H   0  0  0  0  0  0  0  0  0  0  0  0
   52.2107  -25.6373   13.1365 O   0  0  0  0  0  0  0  0  0  0  0  0
   52.3821  -25.5410   11.8087 C   0  0  0  0  0  0  0  0  0  0  0  0
   53.5164  -25.4898   11.4206 O   0  0  0  0  0  0  0  0  0  0  0  0
   51.3462  -25.6807   13.4954 H   0  0  0  0  0  0  0  0  0  0  0  0
   50.5581  -25.0678    6.3872 O   0  0  0  0  0  0  0  0  0  0  0  0
   51.0578  -26.1093    7.0290 C   0  0  0  0  0  0  0  0  0  0  0  0
   51.7640  -26.8614    6.4413 O   0  0  0  0  0  0  0  0  0  0  0  0
   49.9991  -24.4647    6.8364 H   0  0  0  0  0  0  0  0  0  0  0  0
 12 11  2  0  0  0
  7  3  1  0  0  0
 11  3  1  0  0  0
 11 10  1  0  0  0
  3  6  1  0  0  0
  3  1  1  0  0  0
  6  5  1  0  0  0
  6  4  1  0  0  0
  1  2  1  0  0  0
  5 15  1  0  0  0
  5  4  1  0  0  0
 15 16  2  0  0  0
 15 14  1  0  0  0
  4  2  1  0  0  0
 10 13  1  0  0  0
 14 17  1  0  0  0
  7  8  1  0  0  0
  7  9  1  0  0  0
M  END
> <minimizedAffinity>
-7.99707

$$$$
4XAR_40F_A_601


 17 18  0  0  0  0  0  0  0  0999 V2000
   51.7609  -24.3832    9.0234 C   0  0  0  0  0  0  0  0  0  0  0  0
   52.7934  -25.1219    9.8865 C   0  0  0  0  0  0  0  0  0  0  0  0
   50.7357  -25.4476    8.5095 C   0  0  0  0  0  0  0  0  0  0  0  0
   52.1485  -26.4395   10.2499 C   0  0  0  0  0  0  0  0  0  0  0  0
   50.7761  -26.3426   10.9217 C   0  0  0  0  0  0  0  0  0  0  0  0
   50.8890  -26.6440    9.4270 C   0  0  0  0  0  0  0  0  0  0  0  0
   49.3479  -24.9158    8.4508 N   0  0  0  0  0  0  0  0  0  0  0  0
   48.7190  -25.6435    8.1114 H   0  0  0  0  0  0  0  0  0  0  0  0
   49.3165  -24.1168    7.8175 H   0  0  0  0  0  0  0  0  0  0  0  0
   51.8725  -27.0134    6.9182 O   0  0  0  0  0  0  0  0  0  0  0  0
   51.1365  -25.9093    7.1205 C   0  0  0  0  0  0  0  0  0  0  0  0
   50.8335  -25.2847    6.1417 O   0  0  0  0  0  0  0  0  0  0  0  0
   52.1378  -27.5396    7.6468 H   0  0  0  0  0  0  0  0  0  0  0  0
   49.9982  -28.5362   11.1592 O   0  0  0  0  0  0  0  0  0  0  0  0
   50.3689  -27.4462   11.8078 C   0  0  0  0  0  0  0  0  0  0  0  0
   50.3448  -27.4480   12.9949 O   0  0  0  0  0  0  0  0  0  0  0  0
   50.0114  -28.5512   10.2224 H   0  0  0  0  0  0  0  0  0  0  0  0
 12 11  2  0  0  0
  7  3  1  0  0  0
 11  3  1  0  0  0
 11 10  1  0  0  0
  3  6  1  0  0  0
  3  1  1  0  0  0
  6  5  1  0  0  0
  6  4  1  0  0  0
  1  2  1  0  0  0
  5 15  1  0  0  0
  5  4  1  0  0  0
 15 16  2  0  0  0
 15 14  1  0  0  0
  4  2  1  0  0  0
 10 13  1  0  0  0
 14 17  1  0  0  0
  7  8  1  0  0  0
  7  9  1  0  0  0
M  END
> <minimizedAffinity>
-7.76192

$$$$
4XAR_40F_A_601


 17 18  0  0  0  0  0  0  0  0999 V2000
   51.6466  -25.9816   11.4322 C   0  0  0  0  0  0  0  0  0  0  0  0
   52.8852  -25.2933   10.8418 C   0  0  0  0  0  0  0  0  0  0  0  0
   50.6296  -26.1949   10.2624 C   0  0  0  0  0  0  0  0  0  0  0  0
   52.8035  -25.5232    9.3503 C   0  0  0  0  0  0  0  0  0  0  0  0
   52.6723  -26.9841    8.9112 C   0  0  0  0  0  0  0  0  0  0  0  0
   51.4396  -26.0827    8.9865 C   0  0  0  0  0  0  0  0  0  0  0  0
   49.8855  -27.4769   10.3849 N   0  0  0  0  0  0  0  0  0  0  0  0
   49.2377  -27.5701    9.6026 H   0  0  0  0  0  0  0  0  0  0  0  0
   49.3637  -27.4848   11.2613 H   0  0  0  0  0  0  0  0  0  0  0  0
   49.8123  -23.9309   10.9570 O   0  0  0  0  0  0  0  0  0  0  0  0
   49.6290  -25.0541   10.2452 C   0  0  0  0  0  0  0  0  0  0  0  0
   48.6117  -25.1232    9.6124 O   0  0  0  0  0  0  0  0  0  0  0  0
   50.5890  -23.8228   11.4699 H   0  0  0  0  0  0  0  0  0  0  0  0
   52.4021  -26.9087    6.5886 O   0  0  0  0  0  0  0  0  0  0  0  0
   53.1699  -27.3431    7.5724 C   0  0  0  0  0  0  0  0  0  0  0  0
   54.1510  -27.9570    7.3071 O   0  0  0  0  0  0  0  0  0  0  0  0
   51.6243  -26.4228    6.7808 H   0  0  0  0  0  0  0  0  0  0  0  0
 12 11  2  0  0  0
  7  3  1  0  0  0
 11  3  1  0  0  0
 11 10  1  0  0  0
  3  6  1  0  0  0
  3  1  1  0  0  0
  6  5  1  0  0  0
  6  4  1  0  0  0
  1  2  1  0  0  0
  5 15  1  0  0  0
  5  4  1  0  0  0
 15 16  2  0  0  0
 15 14  1  0  0  0
  4  2  1  0  0  0
 10 13  1  0  0  0
 14 17  1  0  0  0
  7  8  1  0  0  0
  7  9  1  0  0  0
M  END
> <minimizedAffinity>
-7.54110

$$$$
4XAR_40F_A_601


 17 18  0  0  0  0  0  0  0  0999 V2000
   49.5818  -26.4998    8.9114 C   0  0  0  0  0  0  0  0  0  0  0  0
   49.3575  -25.4379    9.9970 C   0  0  0  0  0  0  0  0  0  0  0  0
   50.9928  -26.2383    8.2878 C   0  0  0  0  0  0  0  0  0  0  0  0
   50.7299  -24.8938   10.3206 C   0  0  0  0  0  0  0  0  0  0  0  0
   51.7787  -25.9356   10.7193 C   0  0  0  0  0  0  0  0  0  0  0  0
   51.7361  -25.3832    9.2942 C   0  0  0  0  0  0  0  0  0  0  0  0
   51.7008  -27.4990    7.9389 N   0  0  0  0  0  0  0  0  0  0  0  0
   52.6119  -27.2774    7.5375 H   0  0  0  0  0  0  0  0  0  0  0  0
   51.1483  -28.0224    7.2598 H   0  0  0  0  0  0  0  0  0  0  0  0
   50.2668  -24.1907    7.0403 O   0  0  0  0  0  0  0  0  0  0  0  0
   50.8449  -25.4021    7.0301 C   0  0  0  0  0  0  0  0  0  0  0  0
   51.2158  -25.8060    5.9627 O   0  0  0  0  0  0  0  0  0  0  0  0
   49.9582  -23.8256    7.8462 H   0  0  0  0  0  0  0  0  0  0  0  0
   52.5866  -25.5061   12.8725 O   0  0  0  0  0  0  0  0  0  0  0  0
   52.8854  -25.4951   11.5853 C   0  0  0  0  0  0  0  0  0  0  0  0
   53.9705  -25.1482   11.2504 O   0  0  0  0  0  0  0  0  0  0  0  0
   51.7348  -25.7772   13.1534 H   0  0  0  0  0  0  0  0  0  0  0  0
 12 11  2  0  0  0
  7  3  1  0  0  0
 11  3  1  0  0  0
 11 10  1  0  0  0
  3  6  1  0  0  0
  3  1  1  0  0  0
  6  5  1  0  0  0
  6  4  1  0  0  0
  1  2  1  0  0  0
  5 15  1  0  0  0
  5  4  1  0  0  0
 15 16  2  0  0  0
 15 14  1  0  0  0
  4  2  1  0  0  0
 10 13  1  0  0  0
 14 17  1  0  0  0
  7  8  1  0  0  0
  7  9  1  0  0  0
M  END
> <minimizedAffinity>
-7.43149

$$$$
4XAR_40F_A_601


 17 18  0  0  0  0  0  0  0  0999 V2000
   49.8538  -25.1499   10.8216 C   0  0  0  0  0  0  0  0  0  0  0  0
   49.0890  -25.5956    9.5674 C   0  0  0  0  0  0  0  0  0  0  0  0
   50.9803  -26.2047   11.0800 C   0  0  0  0  0  0  0  0  0  0  0  0
   50.0011  -26.5735    8.8632 C   0  0  0  0  0  0  0  0  0  0  0  0
   51.4076  -26.0577    8.5468 C   0  0  0  0  0  0  0  0  0  0  0  0
   51.1623  -26.9429    9.7691 C   0  0  0  0  0  0  0  0  0  0  0  0
   52.2310  -25.5841   11.5929 N   0  0  0  0  0  0  0  0  0  0  0  0
   52.9324  -26.3087   11.7453 H   0  0  0  0  0  0  0  0  0  0  0  0
   52.0376  -25.1074   12.4737 H   0  0  0  0  0  0  0  0  0  0  0  0
   49.7247  -28.2682   11.7443 O   0  0  0  0  0  0  0  0  0  0  0  0
   50.4965  -27.2265   12.0923 C   0  0  0  0  0  0  0  0  0  0  0  0
   50.7626  -27.1272   13.2582 O   0  0  0  0  0  0  0  0  0  0  0  0
   49.4855  -28.3950   10.8473 H   0  0  0  0  0  0  0  0  0  0  0  0
   53.2190  -27.3019    7.7443 O   0  0  0  0  0  0  0  0  0  0  0  0
   52.1156  -26.6593    7.4042 C   0  0  0  0  0  0  0  0  0  0  0  0
   51.8016  -26.6232    6.2596 O   0  0  0  0  0  0  0  0  0  0  0  0
   53.4809  -27.3399    8.6432 H   0  0  0  0  0  0  0  0  0  0  0  0
 12 11  2  0  0  0
  7  3  1  0  0  0
 11  3  1  0  0  0
 11 10  1  0  0  0
  3  6  1  0  0  0
  3  1  1  0  0  0
  6  5  1  0  0  0
  6  4  1  0  0  0
  1  2  1  0  0  0
  5 15  1  0  0  0
  5  4  1  0  0  0
 15 16  2  0  0  0
 15 14  1  0  0  0
  4  2  1  0  0  0
 10 13  1  0  0  0
 14 17  1  0  0  0
  7  8  1  0  0  0
  7  9  1  0  0  0
M  END
> <minimizedAffinity>
-7.36964

$$$$
4XAR_40F_A_601


 17 18  0  0  0  0  0  0  0  0999 V2000
   49.5663  -25.2482    8.6938 C   0  0  0  0  0  0  0  0  0  0  0  0
   50.4503  -26.3612    8.1139 C   0  0  0  0  0  0  0  0  0  0  0  0
   49.7692  -25.2523   10.2453 C   0  0  0  0  0  0  0  0  0  0  0  0
   51.4635  -26.6755    9.1903 C   0  0  0  0  0  0  0  0  0  0  0  0
   52.2745  -25.4833    9.7053 C   0  0  0  0  0  0  0  0  0  0  0  0
   51.0664  -25.9969   10.4892 C   0  0  0  0  0  0  0  0  0  0  0  0
   49.7512  -23.8818   10.8229 N   0  0  0  0  0  0  0  0  0  0  0  0
   49.8868  -23.9365   11.8324 H   0  0  0  0  0  0  0  0  0  0  0  0
   48.8533  -23.4408   10.6239 H   0  0  0  0  0  0  0  0  0  0  0  0
   48.9317  -27.1267   11.6811 O   0  0  0  0  0  0  0  0  0  0  0  0
   48.6690  -26.0678   10.8991 C   0  0  0  0  0  0  0  0  0  0  0  0
   47.5101  -25.8142   10.7180 O   0  0  0  0  0  0  0  0  0  0  0  0
   49.8192  -27.3707   11.8567 H   0  0  0  0  0  0  0  0  0  0  0  0
   53.6942  -25.5411   11.5639 O   0  0  0  0  0  0  0  0  0  0  0  0
   53.6105  -25.7545   10.2625 C   0  0  0  0  0  0  0  0  0  0  0  0
   54.5739  -26.1302    9.6789 O   0  0  0  0  0  0  0  0  0  0  0  0
   52.9432  -25.2445   12.0393 H   0  0  0  0  0  0  0  0  0  0  0  0
 12 11  2  0  0  0
  7  3  1  0  0  0
 11  3  1  0  0  0
 11 10  1  0  0  0
  3  6  1  0  0  0
  3  1  1  0  0  0
  6  5  1  0  0  0
  6  4  1  0  0  0
  1  2  1  0  0  0
  5 15  1  0  0  0
  5  4  1  0  0  0
 15 16  2  0  0  0
 15 14  1  0  0  0
  4  2  1  0  0  0
 10 13  1  0  0  0
 14 17  1  0  0  0
  7  8  1  0  0  0
  7  9  1  0  0  0
M  END
> <minimizedAffinity>
-7.23657

$$$$
4XAR_40F_A_601


 17 18  0  0  0  0  0  0  0  0999 V2000
   51.8373  -26.5797    9.9060 C   0  0  0  0  0  0  0  0  0  0  0  0
   50.7455  -27.5570    9.4484 C   0  0  0  0  0  0  0  0  0  0  0  0
   51.2334  -25.7130   11.0603 C   0  0  0  0  0  0  0  0  0  0  0  0
   49.7368  -27.5924   10.5733 C   0  0  0  0  0  0  0  0  0  0  0  0
   50.2978  -27.9365   11.9558 C   0  0  0  0  0  0  0  0  0  0  0  0
   50.0300  -26.4822   11.5669 C   0  0  0  0  0  0  0  0  0  0  0  0
   52.2316  -25.4038   12.1187 N   0  0  0  0  0  0  0  0  0  0  0  0
   51.7923  -24.8394   12.8459 H   0  0  0  0  0  0  0  0  0  0  0  0
   53.0104  -24.8866   11.7109 H   0  0  0  0  0  0  0  0  0  0  0  0
   49.5943  -23.8211   10.9590 O   0  0  0  0  0  0  0  0  0  0  0  0
   50.7087  -24.4068   10.4932 C   0  0  0  0  0  0  0  0  0  0  0  0
   51.2573  -23.8561    9.5790 O   0  0  0  0  0  0  0  0  0  0  0  0
   49.1249  -24.2075   11.6719 H   0  0  0  0  0  0  0  0  0  0  0  0
   49.9355  -28.7714   14.1110 O   0  0  0  0  0  0  0  0  0  0  0  0
   49.3841  -28.5581   12.9292 C   0  0  0  0  0  0  0  0  0  0  0  0
   48.2510  -28.8700   12.7594 O   0  0  0  0  0  0  0  0  0  0  0  0
   50.8286  -28.5311   14.2615 H   0  0  0  0  0  0  0  0  0  0  0  0
 12 11  2  0  0  0
  7  3  1  0  0  0
 11  3  1  0  0  0
 11 10  1  0  0  0
  3  6  1  0  0  0
  3  1  1  0  0  0
  6  5  1  0  0  0
  6  4  1  0  0  0
  1  2  1  0  0  0
  5 15  1  0  0  0
  5  4  1  0  0  0
 15 16  2  0  0  0
 15 14  1  0  0  0
  4  2  1  0  0  0
 10 13  1  0  0  0
 14 17  1  0  0  0
  7  8  1  0  0  0
  7  9  1  0  0  0
M  END
> <minimizedAffinity>
-6.94706

$$$$
