4R73_G6P_A_401


 22 22  0  0  0  0  0  0  0  0999 V2000
   12.9634   23.4612   48.4393 C   0  0  0  0  0  0  0  0  0  0  0  0
   11.6692   22.8633   48.5593 C   0  0  0  0  0  0  0  0  0  0  0  0
   10.5947   23.9191   48.4351 C   0  0  0  0  0  0  0  0  0  0  0  0
   10.8305   25.0748   49.3738 C   0  0  0  0  0  0  0  0  0  0  0  0
   12.2183   25.5994   49.0894 C   0  0  0  0  0  0  0  0  0  0  0  0
   14.0184   22.6125   48.4321 O   0  0  0  0  0  0  0  0  0  0  0  0
   11.4619   21.8098   47.5812 O   0  0  0  0  0  0  0  0  0  0  0  0
    9.4092   23.2454   48.7329 O   0  0  0  0  0  0  0  0  0  0  0  0
    9.8393   26.0199   49.1534 O   0  0  0  0  0  0  0  0  0  0  0  0
   13.1088   24.5534   49.2024 O   0  0  0  0  0  0  0  0  0  0  0  0
   14.1130   22.2069   49.3081 H   0  0  0  0  0  0  0  0  0  0  0  0
   11.5088   22.1844   46.6876 H   0  0  0  0  0  0  0  0  0  0  0  0
    9.4692   22.8631   49.6223 H   0  0  0  0  0  0  0  0  0  0  0  0
    9.8568   26.2960   48.2237 H   0  0  0  0  0  0  0  0  0  0  0  0
   12.6620   26.6439   50.0703 C   0  0  0  0  0  0  0  0  0  0  0  0
   13.6717   27.4017   49.4949 O   0  0  0  0  0  0  0  0  0  0  0  0
   15.2235   27.4101   50.0257 P   0  0  0  0  0  0  0  0  0  0  0  0
   15.4336   26.0300   50.5499 O   0  0  0  0  0  0  0  0  0  0  0  0
   16.0751   27.7765   48.9059 O   0  0  0  0  0  0  0  0  0  0  0  0
   15.3196   28.4114   51.0477 O   0  0  0  0  0  0  0  0  0  0  0  0
   15.3587   25.3929   49.8224 H   0  0  0  0  0  0  0  0  0  0  0  0
   16.0098   27.0990   48.2148 H   0  0  0  0  0  0  0  0  0  0  0  0
  1  2  1  0  0  0
  1  6  1  0  0  0
  1 10  1  0  0  0
  2  3  1  0  0  0
  2  7  1  0  0  0
  3  4  1  0  0  0
  3  8  1  0  0  0
  4  5  1  0  0  0
  4  9  1  0  0  0
  5 15  1  0  0  0
  5 10  1  0  0  0
 15 16  1  0  0  0
 16 17  1  0  0  0
 17 18  1  0  0  0
 17 19  1  0  0  0
 17 20  2  0  0  0
  6 11  1  0  0  0
  7 12  1  0  0  0
  8 13  1  0  0  0
  9 14  1  0  0  0
 18 21  1  0  0  0
 19 22  1  0  0  0
M  END
> <minimizedAffinity>
-10.02741

$$$$
4R73_G6P_A_401


 22 22  0  0  0  0  0  0  0  0999 V2000
   10.8514   24.9223   49.3394 C   0  0  0  0  0  0  0  0  0  0  0  0
   10.5918   23.8384   48.4425 C   0  0  0  0  0  0  0  0  0  0  0  0
   11.6962   22.8105   48.5349 C   0  0  0  0  0  0  0  0  0  0  0  0
   13.0592   23.4334   48.3725 C   0  0  0  0  0  0  0  0  0  0  0  0
   13.1726   24.5259   49.4097 C   0  0  0  0  0  0  0  0  0  0  0  0
    9.8878   25.8690   49.4317 O   0  0  0  0  0  0  0  0  0  0  0  0
    9.3009   23.2210   48.6918 O   0  0  0  0  0  0  0  0  0  0  0  0
   11.4161   21.9061   47.5095 O   0  0  0  0  0  0  0  0  0  0  0  0
   14.0114   22.4370   48.5303 O   0  0  0  0  0  0  0  0  0  0  0  0
   12.1063   25.3851   49.2525 O   0  0  0  0  0  0  0  0  0  0  0  0
    9.8387   26.3627   48.5983 H   0  0  0  0  0  0  0  0  0  0  0  0
    9.2894   22.8454   49.5861 H   0  0  0  0  0  0  0  0  0  0  0  0
   11.3995   22.3749   46.6604 H   0  0  0  0  0  0  0  0  0  0  0  0
   13.9023   22.0202   49.3994 H   0  0  0  0  0  0  0  0  0  0  0  0
   14.4132   25.3545   49.2543 C   0  0  0  0  0  0  0  0  0  0  0  0
   14.2576   26.5356   49.9654 O   0  0  0  0  0  0  0  0  0  0  0  0
   15.4625   27.6215   50.2084 P   0  0  0  0  0  0  0  0  0  0  0  0
   15.8162   28.0822   48.8349 O   0  0  0  0  0  0  0  0  0  0  0  0
   14.9554   28.6593   51.0911 O   0  0  0  0  0  0  0  0  0  0  0  0
   16.5386   26.9278   50.8541 O   0  0  0  0  0  0  0  0  0  0  0  0
   15.0581   28.5434   48.4433 H   0  0  0  0  0  0  0  0  0  0  0  0
   14.2275   29.1284   50.6540 H   0  0  0  0  0  0  0  0  0  0  0  0
  1  2  1  0  0  0
  1  6  1  0  0  0
  1 10  1  0  0  0
  2  3  1  0  0  0
  2  7  1  0  0  0
  3  4  1  0  0  0
  3  8  1  0  0  0
  4  5  1  0  0  0
  4  9  1  0  0  0
  5 15  1  0  0  0
  5 10  1  0  0  0
 15 16  1  0  0  0
 16 17  1  0  0  0
 17 18  1  0  0  0
 17 19  1  0  0  0
 17 20  2  0  0  0
  6 11  1  0  0  0
  7 12  1  0  0  0
  8 13  1  0  0  0
  9 14  1  0  0  0
 18 21  1  0  0  0
 19 22  1  0  0  0
M  END
> <minimizedAffinity>
-10.01840

$$$$
4R73_G6P_A_401


 22 22  0  0  0  0  0  0  0  0999 V2000
   10.9824   24.3728   49.2639 C   0  0  0  0  0  0  0  0  0  0  0  0
   11.7909   23.3282   48.7143 C   0  0  0  0  0  0  0  0  0  0  0  0
   13.1980   23.4180   49.2591 C   0  0  0  0  0  0  0  0  0  0  0  0
   13.7780   24.7996   49.0939 C   0  0  0  0  0  0  0  0  0  0  0  0
   12.8199   25.7632   49.7541 C   0  0  0  0  0  0  0  0  0  0  0  0
    9.6688   24.3504   48.9367 O   0  0  0  0  0  0  0  0  0  0  0  0
   11.2304   22.0127   48.9692 O   0  0  0  0  0  0  0  0  0  0  0  0
   13.9141   22.4668   48.5308 O   0  0  0  0  0  0  0  0  0  0  0  0
   15.0395   24.8106   49.6709 O   0  0  0  0  0  0  0  0  0  0  0  0
   11.5697   25.5761   49.2047 O   0  0  0  0  0  0  0  0  0  0  0  0
    9.5670   24.5524   47.9934 H   0  0  0  0  0  0  0  0  0  0  0  0
   11.1941   21.8566   49.9259 H   0  0  0  0  0  0  0  0  0  0  0  0
   13.8560   22.6729   47.5847 H   0  0  0  0  0  0  0  0  0  0  0  0
   14.9707   24.5532   50.6035 H   0  0  0  0  0  0  0  0  0  0  0  0
   13.1784   27.2002   49.5169 C   0  0  0  0  0  0  0  0  0  0  0  0
   13.9770   27.6432   50.5613 O   0  0  0  0  0  0  0  0  0  0  0  0
   15.5914   27.9016   50.4311 P   0  0  0  0  0  0  0  0  0  0  0  0
   15.7979   29.2301   51.0763 O   0  0  0  0  0  0  0  0  0  0  0  0
   16.2734   26.7932   51.0789 O   0  0  0  0  0  0  0  0  0  0  0  0
   15.9112   27.9090   49.0333 O   0  0  0  0  0  0  0  0  0  0  0  0
   15.5686   29.1719   52.0170 H   0  0  0  0  0  0  0  0  0  0  0  0
   16.0569   26.7884   52.0245 H   0  0  0  0  0  0  0  0  0  0  0  0
  1  2  1  0  0  0
  1  6  1  0  0  0
  1 10  1  0  0  0
  2  3  1  0  0  0
  2  7  1  0  0  0
  3  4  1  0  0  0
  3  8  1  0  0  0
  4  5  1  0  0  0
  4  9  1  0  0  0
  5 15  1  0  0  0
  5 10  1  0  0  0
 15 16  1  0  0  0
 16 17  1  0  0  0
 17 18  1  0  0  0
 17 19  1  0  0  0
 17 20  2  0  0  0
  6 11  1  0  0  0
  7 12  1  0  0  0
  8 13  1  0  0  0
  9 14  1  0  0  0
 18 21  1  0  0  0
 19 22  1  0  0  0
M  END
> <minimizedAffinity>
-9.84544

$$$$
4R73_G6P_A_401


 22 22  0  0  0  0  0  0  0  0999 V2000
   11.8215   23.3856   48.0772 C   0  0  0  0  0  0  0  0  0  0  0  0
   10.7720   23.9434   48.8735 C   0  0  0  0  0  0  0  0  0  0  0  0
   10.9342   25.4431   48.9716 C   0  0  0  0  0  0  0  0  0  0  0  0
   12.3208   25.8308   49.4180 C   0  0  0  0  0  0  0  0  0  0  0  0
   13.2913   25.1874   48.4556 C   0  0  0  0  0  0  0  0  0  0  0  0
   11.7416   22.0580   47.8234 O   0  0  0  0  0  0  0  0  0  0  0  0
    9.4570   23.6073   48.3564 O   0  0  0  0  0  0  0  0  0  0  0  0
    9.9650   25.8379   49.8951 O   0  0  0  0  0  0  0  0  0  0  0  0
   12.4019   27.2156   49.4229 O   0  0  0  0  0  0  0  0  0  0  0  0
   13.0365   23.8332   48.4235 O   0  0  0  0  0  0  0  0  0  0  0  0
   11.8869   21.5626   48.6446 H   0  0  0  0  0  0  0  0  0  0  0  0
    9.3541   23.9808   47.4671 H   0  0  0  0  0  0  0  0  0  0  0  0
   10.1155   25.3806   50.7372 H   0  0  0  0  0  0  0  0  0  0  0  0
   12.1957   27.5547   48.5378 H   0  0  0  0  0  0  0  0  0  0  0  0
   14.7226   25.3412   48.8768 C   0  0  0  0  0  0  0  0  0  0  0  0
   14.7743   26.1331   50.0148 O   0  0  0  0  0  0  0  0  0  0  0  0
   15.6053   27.5439   50.1096 P   0  0  0  0  0  0  0  0  0  0  0  0
   14.7507   28.4094   50.9724 O   0  0  0  0  0  0  0  0  0  0  0  0
   16.9223   27.2496   50.6501 O   0  0  0  0  0  0  0  0  0  0  0  0
   15.7382   28.0515   48.7750 O   0  0  0  0  0  0  0  0  0  0  0  0
   14.6929   28.0239   51.8607 H   0  0  0  0  0  0  0  0  0  0  0  0
   16.8320   26.9063   51.5528 H   0  0  0  0  0  0  0  0  0  0  0  0
  1  2  1  0  0  0
  1  6  1  0  0  0
  1 10  1  0  0  0
  2  3  1  0  0  0
  2  7  1  0  0  0
  3  4  1  0  0  0
  3  8  1  0  0  0
  4  5  1  0  0  0
  4  9  1  0  0  0
  5 15  1  0  0  0
  5 10  1  0  0  0
 15 16  1  0  0  0
 16 17  1  0  0  0
 17 18  1  0  0  0
 17 19  1  0  0  0
 17 20  2  0  0  0
  6 11  1  0  0  0
  7 12  1  0  0  0
  8 13  1  0  0  0
  9 14  1  0  0  0
 18 21  1  0  0  0
 19 22  1  0  0  0
M  END
> <minimizedAffinity>
-9.56126

$$$$
4R73_G6P_A_401


 22 22  0  0  0  0  0  0  0  0999 V2000
   14.4624   24.7369   48.9362 C   0  0  0  0  0  0  0  0  0  0  0  0
   15.0996   25.9991   48.7181 C   0  0  0  0  0  0  0  0  0  0  0  0
   14.6051   27.0125   49.7248 C   0  0  0  0  0  0  0  0  0  0  0  0
   13.0996   27.0791   49.7628 C   0  0  0  0  0  0  0  0  0  0  0  0
   12.6017   25.6785   50.0321 C   0  0  0  0  0  0  0  0  0  0  0  0
   14.8882   23.7084   48.1653 O   0  0  0  0  0  0  0  0  0  0  0  0
   16.5474   25.8959   48.7702 O   0  0  0  0  0  0  0  0  0  0  0  0
   15.1651   28.2204   49.3060 O   0  0  0  0  0  0  0  0  0  0  0  0
   12.7317   27.9828   50.7488 O   0  0  0  0  0  0  0  0  0  0  0  0
   13.1334   24.8383   49.0775 O   0  0  0  0  0  0  0  0  0  0  0  0
   14.6220   23.8621   47.2453 H   0  0  0  0  0  0  0  0  0  0  0  0
   16.8189   25.6010   49.6535 H   0  0  0  0  0  0  0  0  0  0  0  0
   14.8801   28.4116   48.3987 H   0  0  0  0  0  0  0  0  0  0  0  0
   13.1058   27.7038   51.5991 H   0  0  0  0  0  0  0  0  0  0  0  0
   11.1107   25.5560   49.9238 C   0  0  0  0  0  0  0  0  0  0  0  0
   10.7169   24.3469   50.4785 O   0  0  0  0  0  0  0  0  0  0  0  0
   10.2537   23.0443   49.5959 P   0  0  0  0  0  0  0  0  0  0  0  0
    9.5625   23.6358   48.4143 O   0  0  0  0  0  0  0  0  0  0  0  0
   11.4445   22.2705   49.2854 O   0  0  0  0  0  0  0  0  0  0  0  0
    9.3757   22.2627   50.4172 O   0  0  0  0  0  0  0  0  0  0  0  0
   10.1971   24.1526   47.8937 H   0  0  0  0  0  0  0  0  0  0  0  0
   12.0381   22.7995   48.7299 H   0  0  0  0  0  0  0  0  0  0  0  0
  1  2  1  0  0  0
  1  6  1  0  0  0
  1 10  1  0  0  0
  2  3  1  0  0  0
  2  7  1  0  0  0
  3  4  1  0  0  0
  3  8  1  0  0  0
  4  5  1  0  0  0
  4  9  1  0  0  0
  5 15  1  0  0  0
  5 10  1  0  0  0
 15 16  1  0  0  0
 16 17  1  0  0  0
 17 18  1  0  0  0
 17 19  1  0  0  0
 17 20  2  0  0  0
  6 11  1  0  0  0
  7 12  1  0  0  0
  8 13  1  0  0  0
  9 14  1  0  0  0
 18 21  1  0  0  0
 19 22  1  0  0  0
M  END
> <minimizedAffinity>
-8.96580

$$$$
4R73_G6P_A_401


 22 22  0  0  0  0  0  0  0  0999 V2000
   14.1944   27.4282   50.1680 C   0  0  0  0  0  0  0  0  0  0  0  0
   15.2588   26.4894   49.9874 C   0  0  0  0  0  0  0  0  0  0  0  0
   14.9588   25.5815   48.8167 C   0  0  0  0  0  0  0  0  0  0  0  0
   13.5932   24.9529   48.9279 C   0  0  0  0  0  0  0  0  0  0  0  0
   12.5986   26.0799   49.0791 C   0  0  0  0  0  0  0  0  0  0  0  0
   14.3799   28.3695   51.1234 O   0  0  0  0  0  0  0  0  0  0  0  0
   16.5411   27.1466   49.8052 O   0  0  0  0  0  0  0  0  0  0  0  0
   15.9729   24.6231   48.8512 O   0  0  0  0  0  0  0  0  0  0  0  0
   13.3755   24.1883   47.7910 O   0  0  0  0  0  0  0  0  0  0  0  0
   12.9825   26.8558   50.1517 O   0  0  0  0  0  0  0  0  0  0  0  0
   14.3691   27.9493   51.9976 H   0  0  0  0  0  0  0  0  0  0  0  0
   16.5151   27.6892   49.0016 H   0  0  0  0  0  0  0  0  0  0  0  0
   15.9553   24.1644   49.7057 H   0  0  0  0  0  0  0  0  0  0  0  0
   13.4556   24.7494   47.0038 H   0  0  0  0  0  0  0  0  0  0  0  0
   11.2095   25.5990   49.3773 C   0  0  0  0  0  0  0  0  0  0  0  0
   11.2797   24.3144   49.8966 O   0  0  0  0  0  0  0  0  0  0  0  0
   10.4701   23.0313   49.2736 P   0  0  0  0  0  0  0  0  0  0  0  0
    9.5866   23.6321   48.2333 O   0  0  0  0  0  0  0  0  0  0  0  0
   11.4533   22.0857   48.7710 O   0  0  0  0  0  0  0  0  0  0  0  0
    9.7327   22.4301   50.3465 O   0  0  0  0  0  0  0  0  0  0  0  0
   10.1317   24.0238   47.5330 H   0  0  0  0  0  0  0  0  0  0  0  0
   11.9518   22.4928   48.0453 H   0  0  0  0  0  0  0  0  0  0  0  0
  1  2  1  0  0  0
  1  6  1  0  0  0
  1 10  1  0  0  0
  2  3  1  0  0  0
  2  7  1  0  0  0
  3  4  1  0  0  0
  3  8  1  0  0  0
  4  5  1  0  0  0
  4  9  1  0  0  0
  5 15  1  0  0  0
  5 10  1  0  0  0
 15 16  1  0  0  0
 16 17  1  0  0  0
 17 18  1  0  0  0
 17 19  1  0  0  0
 17 20  2  0  0  0
  6 11  1  0  0  0
  7 12  1  0  0  0
  8 13  1  0  0  0
  9 14  1  0  0  0
 18 21  1  0  0  0
 19 22  1  0  0  0
M  END
> <minimizedAffinity>
-8.59394

$$$$
4R73_G6P_A_401


 22 22  0  0  0  0  0  0  0  0999 V2000
   11.5393   26.1067   47.9161 C   0  0  0  0  0  0  0  0  0  0  0  0
   11.2976   24.7661   48.3533 C   0  0  0  0  0  0  0  0  0  0  0  0
   10.9988   24.7479   49.8350 C   0  0  0  0  0  0  0  0  0  0  0  0
   12.0520   25.4764   50.6301 C   0  0  0  0  0  0  0  0  0  0  0  0
   12.1516   26.8713   50.0586 C   0  0  0  0  0  0  0  0  0  0  0  0
   11.7220   26.2805   46.5858 O   0  0  0  0  0  0  0  0  0  0  0  0
   10.2209   24.1354   47.6101 O   0  0  0  0  0  0  0  0  0  0  0  0
   10.9495   23.3922   50.1630 O   0  0  0  0  0  0  0  0  0  0  0  0
   11.6718   25.4644   51.9642 O   0  0  0  0  0  0  0  0  0  0  0  0
   12.3960   26.7691   48.7060 O   0  0  0  0  0  0  0  0  0  0  0  0
   12.5614   25.8742   46.3189 H   0  0  0  0  0  0  0  0  0  0  0  0
    9.3963   24.6245   47.7576 H   0  0  0  0  0  0  0  0  0  0  0  0
   11.7954   22.9741   49.9379 H   0  0  0  0  0  0  0  0  0  0  0  0
   10.7976   25.8748   52.0549 H   0  0  0  0  0  0  0  0  0  0  0  0
   13.2873   27.6617   50.6377 C   0  0  0  0  0  0  0  0  0  0  0  0
   14.3401   27.6652   49.7340 O   0  0  0  0  0  0  0  0  0  0  0  0
   15.7315   26.8239   49.9487 P   0  0  0  0  0  0  0  0  0  0  0  0
   16.6429   27.7973   50.6163 O   0  0  0  0  0  0  0  0  0  0  0  0
   15.4196   25.6398   50.7323 O   0  0  0  0  0  0  0  0  0  0  0  0
   16.1968   26.4300   48.6508 O   0  0  0  0  0  0  0  0  0  0  0  0
   16.2848   28.0308   51.4870 H   0  0  0  0  0  0  0  0  0  0  0  0
   15.1049   25.9066   51.6102 H   0  0  0  0  0  0  0  0  0  0  0  0
  1  2  1  0  0  0
  1  6  1  0  0  0
  1 10  1  0  0  0
  2  3  1  0  0  0
  2  7  1  0  0  0
  3  4  1  0  0  0
  3  8  1  0  0  0
  4  5  1  0  0  0
  4  9  1  0  0  0
  5 15  1  0  0  0
  5 10  1  0  0  0
 15 16  1  0  0  0
 16 17  1  0  0  0
 17 18  1  0  0  0
 17 19  1  0  0  0
 17 20  2  0  0  0
  6 11  1  0  0  0
  7 12  1  0  0  0
  8 13  1  0  0  0
  9 14  1  0  0  0
 18 21  1  0  0  0
 19 22  1  0  0  0
M  END
> <minimizedAffinity>
-8.35001

$$$$
4R73_G6P_A_401


 22 22  0  0  0  0  0  0  0  0999 V2000
   13.2345   27.5027   50.2673 C   0  0  0  0  0  0  0  0  0  0  0  0
   14.5607   27.5555   50.8014 C   0  0  0  0  0  0  0  0  0  0  0  0
   15.5583   27.0947   49.7635 C   0  0  0  0  0  0  0  0  0  0  0  0
   15.1820   25.7585   49.1758 C   0  0  0  0  0  0  0  0  0  0  0  0
   13.7777   25.8929   48.6353 C   0  0  0  0  0  0  0  0  0  0  0  0
   12.2485   27.9846   51.0602 O   0  0  0  0  0  0  0  0  0  0  0  0
   14.9034   28.8828   51.2814 O   0  0  0  0  0  0  0  0  0  0  0  0
   16.7716   27.0334   50.4506 O   0  0  0  0  0  0  0  0  0  0  0  0
   16.1106   25.4404   48.1956 O   0  0  0  0  0  0  0  0  0  0  0  0
   12.9632   26.3433   49.6520 O   0  0  0  0  0  0  0  0  0  0  0  0
   12.1335   27.3993   51.8251 H   0  0  0  0  0  0  0  0  0  0  0  0
   14.8807   29.5100   50.5418 H   0  0  0  0  0  0  0  0  0  0  0  0
   16.6886   26.4226   51.1996 H   0  0  0  0  0  0  0  0  0  0  0  0
   16.1268   26.1418   47.5257 H   0  0  0  0  0  0  0  0  0  0  0  0
   13.2003   24.5877   48.1741 C   0  0  0  0  0  0  0  0  0  0  0  0
   12.2515   24.1651   49.0939 O   0  0  0  0  0  0  0  0  0  0  0  0
   11.0282   23.1328   48.7362 P   0  0  0  0  0  0  0  0  0  0  0  0
    9.9612   24.0151   48.1821 O   0  0  0  0  0  0  0  0  0  0  0  0
   11.5422   22.1370   47.8102 O   0  0  0  0  0  0  0  0  0  0  0  0
   10.6382   22.4931   49.9589 O   0  0  0  0  0  0  0  0  0  0  0  0
   10.2734   24.4221   47.3589 H   0  0  0  0  0  0  0  0  0  0  0  0
   11.8058   22.5701   46.9833 H   0  0  0  0  0  0  0  0  0  0  0  0
  1  2  1  0  0  0
  1  6  1  0  0  0
  1 10  1  0  0  0
  2  3  1  0  0  0
  2  7  1  0  0  0
  3  4  1  0  0  0
  3  8  1  0  0  0
  4  5  1  0  0  0
  4  9  1  0  0  0
  5 15  1  0  0  0
  5 10  1  0  0  0
 15 16  1  0  0  0
 16 17  1  0  0  0
 17 18  1  0  0  0
 17 19  1  0  0  0
 17 20  2  0  0  0
  6 11  1  0  0  0
  7 12  1  0  0  0
  8 13  1  0  0  0
  9 14  1  0  0  0
 18 21  1  0  0  0
 19 22  1  0  0  0
M  END
> <minimizedAffinity>
-8.15474

$$$$
4R73_G6P_A_401


 22 22  0  0  0  0  0  0  0  0999 V2000
   12.2387   26.0020   49.7874 C   0  0  0  0  0  0  0  0  0  0  0  0
   13.5228   25.5119   49.3904 C   0  0  0  0  0  0  0  0  0  0  0  0
   13.3673   24.4348   48.3414 C   0  0  0  0  0  0  0  0  0  0  0  0
   12.4040   23.3603   48.7770 C   0  0  0  0  0  0  0  0  0  0  0  0
   11.1039   24.0465   49.1249 C   0  0  0  0  0  0  0  0  0  0  0  0
   12.2347   27.0437   50.6523 O   0  0  0  0  0  0  0  0  0  0  0  0
   14.3858   26.5741   48.9040 O   0  0  0  0  0  0  0  0  0  0  0  0
   14.6573   23.9318   48.1657 O   0  0  0  0  0  0  0  0  0  0  0  0
   12.2739   22.4496   47.7387 O   0  0  0  0  0  0  0  0  0  0  0  0
   11.3662   25.0224   50.0625 O   0  0  0  0  0  0  0  0  0  0  0  0
   12.5642   26.7484   51.5155 H   0  0  0  0  0  0  0  0  0  0  0  0
   13.9902   26.9763   48.1149 H   0  0  0  0  0  0  0  0  0  0  0  0
   14.9916   23.5962   49.0122 H   0  0  0  0  0  0  0  0  0  0  0  0
   11.9699   22.9101   46.9409 H   0  0  0  0  0  0  0  0  0  0  0  0
   10.1002   23.1200   49.7445 C   0  0  0  0  0  0  0  0  0  0  0  0
    8.9547   23.1089   48.9617 O   0  0  0  0  0  0  0  0  0  0  0  0
    7.5570   22.3698   49.3978 P   0  0  0  0  0  0  0  0  0  0  0  0
    7.0890   21.7129   48.1434 O   0  0  0  0  0  0  0  0  0  0  0  0
    7.8568   21.4596   50.4910 O   0  0  0  0  0  0  0  0  0  0  0  0
    6.6599   23.3899   49.8567 O   0  0  0  0  0  0  0  0  0  0  0  0
    7.7280   21.0339   47.8762 H   0  0  0  0  0  0  0  0  0  0  0  0
    8.4637   20.7697   50.1802 H   0  0  0  0  0  0  0  0  0  0  0  0
  1  2  1  0  0  0
  1  6  1  0  0  0
  1 10  1  0  0  0
  2  3  1  0  0  0
  2  7  1  0  0  0
  3  4  1  0  0  0
  3  8  1  0  0  0
  4  5  1  0  0  0
  4  9  1  0  0  0
  5 15  1  0  0  0
  5 10  1  0  0  0
 15 16  1  0  0  0
 16 17  1  0  0  0
 17 18  1  0  0  0
 17 19  1  0  0  0
 17 20  2  0  0  0
  6 11  1  0  0  0
  7 12  1  0  0  0
  8 13  1  0  0  0
  9 14  1  0  0  0
 18 21  1  0  0  0
 19 22  1  0  0  0
M  END
> <minimizedAffinity>
-7.34295

$$$$
4R73_G6P_A_401


 22 22  0  0  0  0  0  0  0  0999 V2000
   14.0582   26.8139   49.5129 C   0  0  0  0  0  0  0  0  0  0  0  0
   14.9252   25.7282   49.1714 C   0  0  0  0  0  0  0  0  0  0  0  0
   14.2394   24.8027   48.1927 C   0  0  0  0  0  0  0  0  0  0  0  0
   12.8786   24.3761   48.6811 C   0  0  0  0  0  0  0  0  0  0  0  0
   12.0939   25.6364   48.9606 C   0  0  0  0  0  0  0  0  0  0  0  0
   14.5848   27.7755   50.3074 O   0  0  0  0  0  0  0  0  0  0  0  0
   16.1918   26.1905   48.6314 O   0  0  0  0  0  0  0  0  0  0  0  0
   15.1088   23.7174   48.0729 O   0  0  0  0  0  0  0  0  0  0  0  0
   12.2973   23.5828   47.7027 O   0  0  0  0  0  0  0  0  0  0  0  0
   12.8205   26.4141   49.8365 O   0  0  0  0  0  0  0  0  0  0  0  0
   14.7402   27.4134   51.1938 H   0  0  0  0  0  0  0  0  0  0  0  0
   16.0331   26.6829   47.8109 H   0  0  0  0  0  0  0  0  0  0  0  0
   15.2481   23.3169   48.9453 H   0  0  0  0  0  0  0  0  0  0  0  0
   12.2469   24.0799   46.8712 H   0  0  0  0  0  0  0  0  0  0  0  0
   10.7743   25.3701   49.6220 C   0  0  0  0  0  0  0  0  0  0  0  0
   10.4216   26.4747   50.3838 O   0  0  0  0  0  0  0  0  0  0  0  0
   10.9729   26.7505   51.9037 P   0  0  0  0  0  0  0  0  0  0  0  0
   11.6600   25.4801   52.2748 O   0  0  0  0  0  0  0  0  0  0  0  0
   11.8326   27.9220   51.8599 O   0  0  0  0  0  0  0  0  0  0  0  0
    9.8322   27.0245   52.7283 O   0  0  0  0  0  0  0  0  0  0  0  0
   12.4212   25.3413   51.6898 H   0  0  0  0  0  0  0  0  0  0  0  0
   12.6040   27.7362   51.3020 H   0  0  0  0  0  0  0  0  0  0  0  0
  1  2  1  0  0  0
  1  6  1  0  0  0
  1 10  1  0  0  0
  2  3  1  0  0  0
  2  7  1  0  0  0
  3  4  1  0  0  0
  3  8  1  0  0  0
  4  5  1  0  0  0
  4  9  1  0  0  0
  5 15  1  0  0  0
  5 10  1  0  0  0
 15 16  1  0  0  0
 16 17  1  0  0  0
 17 18  1  0  0  0
 17 19  1  0  0  0
 17 20  2  0  0  0
  6 11  1  0  0  0
  7 12  1  0  0  0
  8 13  1  0  0  0
  9 14  1  0  0  0
 18 21  1  0  0  0
 19 22  1  0  0  0
M  END
> <minimizedAffinity>
-7.18892

$$$$
