1SQA_UI1_A_1001


 38 41  0  0  0  0  0  0  0  0999 V2000
   23.0080   15.6536   32.2127 C   0  0  0  0  0  0  0  0  0  0  0  0
   23.5808   16.7589   32.8827 C   0  0  0  0  0  0  0  0  0  0  0  0
   22.7823   17.7751   33.3553 C   0  0  0  0  0  0  0  0  0  0  0  0
   21.3593   17.7080   33.1726 C   0  0  0  0  0  0  0  0  0  0  0  0
   20.5504   18.7700   33.6444 C   0  0  0  0  0  0  0  0  0  0  0  0
   19.1491   18.7238   33.4796 C   0  0  0  0  0  0  0  0  0  0  0  0
   18.5441   17.6180   32.8507 C   0  0  0  0  0  0  0  0  0  0  0  0
   19.3483   16.5546   32.3718 C   0  0  0  0  0  0  0  0  0  0  0  0
   20.7644   16.6032   32.5280 C   0  0  0  0  0  0  0  0  0  0  0  0
   21.5892   15.5658   32.0370 C   0  0  0  0  0  0  0  0  0  0  0  0
   18.3657   19.8705   33.9957 C   0  0  0  0  0  0  0  0  0  0  0  0
   17.0653   19.7988   34.0404 N   0  0  0  0  0  0  0  0  0  0  0  0
   18.9714   20.9731   34.4156 N   0  0  0  0  0  0  0  0  0  0  0  0
   16.6062   18.9847   33.7311 H   0  0  0  0  0  0  0  0  0  0  0  0
   19.9533   21.0371   34.3859 H   0  0  0  0  0  0  0  0  0  0  0  0
   18.4390   21.7276   34.7569 H   0  0  0  0  0  0  0  0  0  0  0  0
   24.5514   13.8098   32.4855 N   0  0  0  0  0  0  0  0  0  0  0  0
   23.9436   14.6311   31.6505 C   0  0  0  0  0  0  0  0  0  0  0  0
   24.0766   14.5219   30.4374 O   0  0  0  0  0  0  0  0  0  0  0  0
   24.4623   13.9539   33.4553 H   0  0  0  0  0  0  0  0  0  0  0  0
   26.6227   10.3068   31.1958 C   0  0  0  0  0  0  0  0  0  0  0  0
   25.3326   10.2502   31.7470 C   0  0  0  0  0  0  0  0  0  0  0  0
   24.7001   11.4370   32.1456 C   0  0  0  0  0  0  0  0  0  0  0  0
   25.3433   12.7058   32.0047 C   0  0  0  0  0  0  0  0  0  0  0  0
   26.6316   12.7709   31.4614 C   0  0  0  0  0  0  0  0  0  0  0  0
   27.2739   11.5596   31.0497 C   0  0  0  0  0  0  0  0  0  0  0  0
   26.3689    8.0599   30.1965 N   0  0  0  0  0  0  0  0  0  0  0  0
   27.3190    9.0075   30.7632 C   0  0  0  0  0  0  0  0  0  0  0  0
   26.8603    7.2100   29.9198 H   0  0  0  0  0  0  0  0  0  0  0  0
   25.9209    8.4749   29.3795 H   0  0  0  0  0  0  0  0  0  0  0  0
   23.4031   18.9165   33.9755 N   0  0  0  0  0  0  0  0  0  0  0  0
   23.4822   19.7457   33.4506 H   0  0  0  0  0  0  0  0  0  0  0  0
   23.9073   18.9116   35.3021 C   0  0  0  0  0  0  0  0  0  0  0  0
   24.5048   20.0363   35.7638 N   0  0  0  0  0  0  0  0  0  0  0  0
   24.9870   20.0960   37.0251 C   0  0  0  0  0  0  0  0  0  0  0  0
   24.8598   18.9769   37.8758 C   0  0  0  0  0  0  0  0  0  0  0  0
   24.2407   17.8271   37.3640 C   0  0  0  0  0  0  0  0  0  0  0  0
   23.7784   17.8220   36.0909 N   0  0  0  0  0  0  0  0  0  0  0  0
 27 28  1  0  0  0
 28 21  1  0  0  0
 21 22  1  0  0  0
 21 26  2  0  0  0
 22 23  2  0  0  0
 23 24  1  0  0  0
 24 17  1  0  0  0
 24 25  2  0  0  0
 17 18  1  0  0  0
 18 19  2  0  0  0
 18  1  1  0  0  0
  1  2  1  0  0  0
  1 10  2  0  0  0
  2  3  2  0  0  0
  3 31  1  0  0  0
  3  4  1  0  0  0
 31 33  1  0  0  0
 33 34  1  0  0  0
 33 38  2  0  0  0
 34 35  2  0  0  0
 35 36  1  0  0  0
 36 37  2  0  0  0
 37 38  1  0  0  0
  4  5  1  0  0  0
  4  9  2  0  0  0
  5  6  2  0  0  0
  6  7  1  0  0  0
  6 11  1  0  0  0
  7  8  2  0  0  0
  8  9  1  0  0  0
  9 10  1  0  0  0
 11 12  2  0  0  0
 11 13  1  0  0  0
 25 26  1  0  0  0
 27 29  1  0  0  0
 27 30  1  0  0  0
 17 20  1  0  0  0
 31 32  1  0  0  0
 12 14  1  0  0  0
 13 15  1  0  0  0
 13 16  1  0  0  0
M  END
> <minimizedAffinity>
-9.44429

$$$$
1SQA_UI1_A_1001


 38 41  0  0  0  0  0  0  0  0999 V2000
   23.1592   15.8655   32.5418 C   0  0  0  0  0  0  0  0  0  0  0  0
   23.6317   16.9830   33.2675 C   0  0  0  0  0  0  0  0  0  0  0  0
   22.7596   17.9665   33.6749 C   0  0  0  0  0  0  0  0  0  0  0  0
   21.3614   17.8524   33.3667 C   0  0  0  0  0  0  0  0  0  0  0  0
   20.4773   18.8812   33.7727 C   0  0  0  0  0  0  0  0  0  0  0  0
   19.0984   18.7886   33.4846 C   0  0  0  0  0  0  0  0  0  0  0  0
   18.5903   17.6691   32.7970 C   0  0  0  0  0  0  0  0  0  0  0  0
   19.4704   16.6387   32.3836 C   0  0  0  0  0  0  0  0  0  0  0  0
   20.8646   16.7344   32.6644 C   0  0  0  0  0  0  0  0  0  0  0  0
   21.7653   15.7309   32.2410 C   0  0  0  0  0  0  0  0  0  0  0  0
   18.2330   19.9025   33.9375 C   0  0  0  0  0  0  0  0  0  0  0  0
   16.9405   19.7417   33.9819 N   0  0  0  0  0  0  0  0  0  0  0  0
   18.7568   21.0654   34.3010 N   0  0  0  0  0  0  0  0  0  0  0  0
   16.5419   18.8823   33.7142 H   0  0  0  0  0  0  0  0  0  0  0  0
   19.7320   21.1968   34.2710 H   0  0  0  0  0  0  0  0  0  0  0  0
   18.1705   21.7972   34.6007 H   0  0  0  0  0  0  0  0  0  0  0  0
   25.1807   15.3253   31.3263 N   0  0  0  0  0  0  0  0  0  0  0  0
   24.1759   14.8815   32.0573 C   0  0  0  0  0  0  0  0  0  0  0  0
   24.1053   13.7071   32.3996 O   0  0  0  0  0  0  0  0  0  0  0  0
   25.1832   16.2634   31.0276 H   0  0  0  0  0  0  0  0  0  0  0  0
   28.2237   12.6857   29.9132 C   0  0  0  0  0  0  0  0  0  0  0  0
   27.0973   13.0080   29.1393 C   0  0  0  0  0  0  0  0  0  0  0  0
   26.1347   13.8879   29.6555 C   0  0  0  0  0  0  0  0  0  0  0  0
   26.2746   14.4629   30.9566 C   0  0  0  0  0  0  0  0  0  0  0  0
   27.3916   14.1427   31.7372 C   0  0  0  0  0  0  0  0  0  0  0  0
   28.3763   13.2490   31.2070 C   0  0  0  0  0  0  0  0  0  0  0  0
   28.6524   10.5812   28.6886 N   0  0  0  0  0  0  0  0  0  0  0  0
   29.2767   11.7183   29.3514 C   0  0  0  0  0  0  0  0  0  0  0  0
   29.3756    9.9592   28.3275 H   0  0  0  0  0  0  0  0  0  0  0  0
   28.0732   10.9132   27.9174 H   0  0  0  0  0  0  0  0  0  0  0  0
   23.2830   19.1223   34.3553 N   0  0  0  0  0  0  0  0  0  0  0  0
   23.1963   19.9994   33.9168 H   0  0  0  0  0  0  0  0  0  0  0  0
   23.9171   19.0660   35.6237 C   0  0  0  0  0  0  0  0  0  0  0  0
   24.5836   20.1637   36.0552 N   0  0  0  0  0  0  0  0  0  0  0  0
   25.1907   20.1745   37.2629 C   0  0  0  0  0  0  0  0  0  0  0  0
   25.1235   19.0323   38.0893 C   0  0  0  0  0  0  0  0  0  0  0  0
   24.4298   17.9116   37.6095 C   0  0  0  0  0  0  0  0  0  0  0  0
   23.8426   17.9553   36.3898 N   0  0  0  0  0  0  0  0  0  0  0  0
 27 28  1  0  0  0
 28 21  1  0  0  0
 21 22  1  0  0  0
 21 26  2  0  0  0
 22 23  2  0  0  0
 23 24  1  0  0  0
 24 17  1  0  0  0
 24 25  2  0  0  0
 17 18  1  0  0  0
 18 19  2  0  0  0
 18  1  1  0  0  0
  1  2  1  0  0  0
  1 10  2  0  0  0
  2  3  2  0  0  0
  3 31  1  0  0  0
  3  4  1  0  0  0
 31 33  1  0  0  0
 33 34  1  0  0  0
 33 38  2  0  0  0
 34 35  2  0  0  0
 35 36  1  0  0  0
 36 37  2  0  0  0
 37 38  1  0  0  0
  4  5  1  0  0  0
  4  9  2  0  0  0
  5  6  2  0  0  0
  6  7  1  0  0  0
  6 11  1  0  0  0
  7  8  2  0  0  0
  8  9  1  0  0  0
  9 10  1  0  0  0
 11 12  2  0  0  0
 11 13  1  0  0  0
 25 26  1  0  0  0
 27 29  1  0  0  0
 27 30  1  0  0  0
 17 20  1  0  0  0
 31 32  1  0  0  0
 12 14  1  0  0  0
 13 15  1  0  0  0
 13 16  1  0  0  0
M  END
> <minimizedAffinity>
-8.83840

$$$$
1SQA_UI1_A_1001


 38 41  0  0  0  0  0  0  0  0999 V2000
   23.9268   13.7974   32.7164 C   0  0  0  0  0  0  0  0  0  0  0  0
   23.5500   12.5903   33.3486 C   0  0  0  0  0  0  0  0  0  0  0  0
   24.1448   11.4025   32.9892 C   0  0  0  0  0  0  0  0  0  0  0  0
   25.1583   11.3914   31.9716 C   0  0  0  0  0  0  0  0  0  0  0  0
   25.7476   10.1601   31.5957 C   0  0  0  0  0  0  0  0  0  0  0  0
   26.7487   10.1254   30.6008 C   0  0  0  0  0  0  0  0  0  0  0  0
   27.1737   11.3159   29.9794 C   0  0  0  0  0  0  0  0  0  0  0  0
   26.5845   12.5505   30.3474 C   0  0  0  0  0  0  0  0  0  0  0  0
   25.5665   12.5873   31.3445 C   0  0  0  0  0  0  0  0  0  0  0  0
   24.9470   13.8036   31.7111 C   0  0  0  0  0  0  0  0  0  0  0  0
   27.3193    8.8022   30.2564 C   0  0  0  0  0  0  0  0  0  0  0  0
   27.1652    7.7981   31.0727 N   0  0  0  0  0  0  0  0  0  0  0  0
   27.9866    8.6239   29.1243 N   0  0  0  0  0  0  0  0  0  0  0  0
   26.6714    7.9202   31.9156 H   0  0  0  0  0  0  0  0  0  0  0  0
   28.1084    9.3762   28.5010 H   0  0  0  0  0  0  0  0  0  0  0  0
   28.3601    7.7393   28.9071 H   0  0  0  0  0  0  0  0  0  0  0  0
   22.1305   15.3818   32.3715 N   0  0  0  0  0  0  0  0  0  0  0  0
   23.1771   15.0346   33.0962 C   0  0  0  0  0  0  0  0  0  0  0  0
   23.4936   15.6600   34.1012 O   0  0  0  0  0  0  0  0  0  0  0  0
   21.9311   14.8880   31.5434 H   0  0  0  0  0  0  0  0  0  0  0  0
   19.3068   18.4249   33.3669 C   0  0  0  0  0  0  0  0  0  0  0  0
   18.9278   17.2390   32.7178 C   0  0  0  0  0  0  0  0  0  0  0  0
   19.9006   16.2724   32.4237 C   0  0  0  0  0  0  0  0  0  0  0  0
   21.2736   16.4702   32.7691 C   0  0  0  0  0  0  0  0  0  0  0  0
   21.6611   17.6520   33.4113 C   0  0  0  0  0  0  0  0  0  0  0  0
   20.6664   18.6353   33.7161 C   0  0  0  0  0  0  0  0  0  0  0  0
   18.6320   20.3003   34.8296 N   0  0  0  0  0  0  0  0  0  0  0  0
   18.2434   19.4869   33.6854 C   0  0  0  0  0  0  0  0  0  0  0  0
   17.9077   20.9940   35.0154 H   0  0  0  0  0  0  0  0  0  0  0  0
   19.5123   20.7739   34.6267 H   0  0  0  0  0  0  0  0  0  0  0  0
   23.6923   10.1832   33.6067 N   0  0  0  0  0  0  0  0  0  0  0  0
   22.7590    9.9060   33.4605 H   0  0  0  0  0  0  0  0  0  0  0  0
   24.5182    9.3590   34.4145 C   0  0  0  0  0  0  0  0  0  0  0  0
   24.5737    8.0353   34.1315 N   0  0  0  0  0  0  0  0  0  0  0  0
   25.3576    7.2051   34.8550 C   0  0  0  0  0  0  0  0  0  0  0  0
   26.1350    7.7231   35.9131 C   0  0  0  0  0  0  0  0  0  0  0  0
   26.0498    9.0970   36.1822 C   0  0  0  0  0  0  0  0  0  0  0  0
   25.2452    9.8819   35.4265 N   0  0  0  0  0  0  0  0  0  0  0  0
 27 28  1  0  0  0
 28 21  1  0  0  0
 21 22  1  0  0  0
 21 26  2  0  0  0
 22 23  2  0  0  0
 23 24  1  0  0  0
 24 17  1  0  0  0
 24 25  2  0  0  0
 17 18  1  0  0  0
 18 19  2  0  0  0
 18  1  1  0  0  0
  1  2  1  0  0  0
  1 10  2  0  0  0
  2  3  2  0  0  0
  3 31  1  0  0  0
  3  4  1  0  0  0
 31 33  1  0  0  0
 33 34  1  0  0  0
 33 38  2  0  0  0
 34 35  2  0  0  0
 35 36  1  0  0  0
 36 37  2  0  0  0
 37 38  1  0  0  0
  4  5  1  0  0  0
  4  9  2  0  0  0
  5  6  2  0  0  0
  6  7  1  0  0  0
  6 11  1  0  0  0
  7  8  2  0  0  0
  8  9  1  0  0  0
  9 10  1  0  0  0
 11 12  2  0  0  0
 11 13  1  0  0  0
 25 26  1  0  0  0
 27 29  1  0  0  0
 27 30  1  0  0  0
 17 20  1  0  0  0
 31 32  1  0  0  0
 12 14  1  0  0  0
 13 15  1  0  0  0
 13 16  1  0  0  0
M  END
> <minimizedAffinity>
-8.42099

$$$$
1SQA_UI1_A_1001


 38 41  0  0  0  0  0  0  0  0999 V2000
   24.3708   14.6573   31.3783 C   0  0  0  0  0  0  0  0  0  0  0  0
   24.7709   13.9980   32.5632 C   0  0  0  0  0  0  0  0  0  0  0  0
   25.8032   13.0883   32.5378 C   0  0  0  0  0  0  0  0  0  0  0  0
   26.4814   12.8134   31.3019 C   0  0  0  0  0  0  0  0  0  0  0  0
   27.5279   11.8598   31.2844 C   0  0  0  0  0  0  0  0  0  0  0  0
   28.2115   11.5763   30.0822 C   0  0  0  0  0  0  0  0  0  0  0  0
   27.8625   12.2447   28.8923 C   0  0  0  0  0  0  0  0  0  0  0  0
   26.8130   13.1963   28.9021 C   0  0  0  0  0  0  0  0  0  0  0  0
   26.1145   13.4771   30.1125 C   0  0  0  0  0  0  0  0  0  0  0  0
   25.0482   14.4045   30.1419 C   0  0  0  0  0  0  0  0  0  0  0  0
   29.2938   10.5661   30.1375 C   0  0  0  0  0  0  0  0  0  0  0  0
   29.0035    9.3183   30.3763 N   0  0  0  0  0  0  0  0  0  0  0  0
   30.5589   10.9146   29.9456 N   0  0  0  0  0  0  0  0  0  0  0  0
   28.0674    9.0495   30.5201 H   0  0  0  0  0  0  0  0  0  0  0  0
   30.7885   11.8547   29.7645 H   0  0  0  0  0  0  0  0  0  0  0  0
   31.2685   10.2333   29.9843 H   0  0  0  0  0  0  0  0  0  0  0  0
   22.3283   15.3876   32.4511 N   0  0  0  0  0  0  0  0  0  0  0  0
   23.1864   15.5663   31.4647 C   0  0  0  0  0  0  0  0  0  0  0  0
   23.0673   16.4961   30.6755 O   0  0  0  0  0  0  0  0  0  0  0  0
   22.4245   14.6036   33.0387 H   0  0  0  0  0  0  0  0  0  0  0  0
   19.3738   18.3217   33.3923 C   0  0  0  0  0  0  0  0  0  0  0  0
   20.6811   18.3898   33.9001 C   0  0  0  0  0  0  0  0  0  0  0  0
   21.6100   17.3994   33.5486 C   0  0  0  0  0  0  0  0  0  0  0  0
   21.2529   16.3182   32.6844 C   0  0  0  0  0  0  0  0  0  0  0  0
   19.9502   16.2394   32.1782 C   0  0  0  0  0  0  0  0  0  0  0  0
   19.0046   17.2539   32.5331 C   0  0  0  0  0  0  0  0  0  0  0  0
   18.8100   20.1757   34.9275 N   0  0  0  0  0  0  0  0  0  0  0  0
   18.3536   19.4029   33.7802 C   0  0  0  0  0  0  0  0  0  0  0  0
   18.1131   20.8833   35.1598 H   0  0  0  0  0  0  0  0  0  0  0  0
   19.6942   20.6310   34.7008 H   0  0  0  0  0  0  0  0  0  0  0  0
   26.1427   12.3872   33.7486 N   0  0  0  0  0  0  0  0  0  0  0  0
   26.7669   12.8179   34.3763 H   0  0  0  0  0  0  0  0  0  0  0  0
   25.6264   11.1092   34.0865 C   0  0  0  0  0  0  0  0  0  0  0  0
   26.1312   10.4829   35.1766 N   0  0  0  0  0  0  0  0  0  0  0  0
   25.6650    9.2726   35.5573 C   0  0  0  0  0  0  0  0  0  0  0  0
   24.6340    8.6559   34.8163 C   0  0  0  0  0  0  0  0  0  0  0  0
   24.1380    9.3296   33.6905 C   0  0  0  0  0  0  0  0  0  0  0  0
   24.6446   10.5396   33.3532 N   0  0  0  0  0  0  0  0  0  0  0  0
 27 28  1  0  0  0
 28 21  1  0  0  0
 21 22  1  0  0  0
 21 26  2  0  0  0
 22 23  2  0  0  0
 23 24  1  0  0  0
 24 17  1  0  0  0
 24 25  2  0  0  0
 17 18  1  0  0  0
 18 19  2  0  0  0
 18  1  1  0  0  0
  1  2  1  0  0  0
  1 10  2  0  0  0
  2  3  2  0  0  0
  3 31  1  0  0  0
  3  4  1  0  0  0
 31 33  1  0  0  0
 33 34  1  0  0  0
 33 38  2  0  0  0
 34 35  2  0  0  0
 35 36  1  0  0  0
 36 37  2  0  0  0
 37 38  1  0  0  0
  4  5  1  0  0  0
  4  9  2  0  0  0
  5  6  2  0  0  0
  6  7  1  0  0  0
  6 11  1  0  0  0
  7  8  2  0  0  0
  8  9  1  0  0  0
  9 10  1  0  0  0
 11 12  2  0  0  0
 11 13  1  0  0  0
 25 26  1  0  0  0
 27 29  1  0  0  0
 27 30  1  0  0  0
 17 20  1  0  0  0
 31 32  1  0  0  0
 12 14  1  0  0  0
 13 15  1  0  0  0
 13 16  1  0  0  0
M  END
> <minimizedAffinity>
-8.05355

$$$$
1SQA_UI1_A_1001


 38 41  0  0  0  0  0  0  0  0999 V2000
   23.7033   13.8276   32.5242 C   0  0  0  0  0  0  0  0  0  0  0  0
   25.0007   13.9057   31.9680 C   0  0  0  0  0  0  0  0  0  0  0  0
   25.8564   12.8308   32.0464 C   0  0  0  0  0  0  0  0  0  0  0  0
   25.4255   11.6215   32.6906 C   0  0  0  0  0  0  0  0  0  0  0  0
   26.3223   10.5299   32.7837 C   0  0  0  0  0  0  0  0  0  0  0  0
   25.9193    9.3299   33.4088 C   0  0  0  0  0  0  0  0  0  0  0  0
   24.6200    9.2069   33.9386 C   0  0  0  0  0  0  0  0  0  0  0  0
   23.7195   10.2972   33.8532 C   0  0  0  0  0  0  0  0  0  0  0  0
   24.1271   11.5134   33.2314 C   0  0  0  0  0  0  0  0  0  0  0  0
   23.2547   12.6229   33.1558 C   0  0  0  0  0  0  0  0  0  0  0  0
   26.9102    8.2303   33.4721 C   0  0  0  0  0  0  0  0  0  0  0  0
   26.7761    7.2880   34.3622 N   0  0  0  0  0  0  0  0  0  0  0  0
   27.9356    8.1905   32.6319 N   0  0  0  0  0  0  0  0  0  0  0  0
   26.0184    7.3086   34.9905 H   0  0  0  0  0  0  0  0  0  0  0  0
   28.0457    8.8977   31.9558 H   0  0  0  0  0  0  0  0  0  0  0  0
   28.5865    7.4538   32.6842 H   0  0  0  0  0  0  0  0  0  0  0  0
   21.8146   15.1390   33.2785 N   0  0  0  0  0  0  0  0  0  0  0  0
   22.8610   15.0626   32.4783 C   0  0  0  0  0  0  0  0  0  0  0  0
   23.1884   16.0028   31.7639 O   0  0  0  0  0  0  0  0  0  0  0  0
   21.5498   14.3497   33.8039 H   0  0  0  0  0  0  0  0  0  0  0  0
   19.3057   18.5914   33.3832 C   0  0  0  0  0  0  0  0  0  0  0  0
   18.9442   17.4274   32.6861 C   0  0  0  0  0  0  0  0  0  0  0  0
   19.8076   16.3220   32.6949 C   0  0  0  0  0  0  0  0  0  0  0  0
   21.0518   16.3560   33.3978 C   0  0  0  0  0  0  0  0  0  0  0  0
   21.4227   17.5143   34.0907 C   0  0  0  0  0  0  0  0  0  0  0  0
   20.5381   18.6398   34.0857 C   0  0  0  0  0  0  0  0  0  0  0  0
   17.1145   19.5138   34.0612 N   0  0  0  0  0  0  0  0  0  0  0  0
   18.3636   19.8048   33.3706 C   0  0  0  0  0  0  0  0  0  0  0  0
   16.5122   20.3365   34.0357 H   0  0  0  0  0  0  0  0  0  0  0  0
   17.3117   19.2668   35.0310 H   0  0  0  0  0  0  0  0  0  0  0  0
   27.1924   12.9657   31.5272 N   0  0  0  0  0  0  0  0  0  0  0  0
   27.9284   13.1034   32.1665 H   0  0  0  0  0  0  0  0  0  0  0  0
   27.5063   12.9112   30.1443 C   0  0  0  0  0  0  0  0  0  0  0  0
   27.0434   11.8614   29.4239 N   0  0  0  0  0  0  0  0  0  0  0  0
   27.2951   11.7662   28.0993 C   0  0  0  0  0  0  0  0  0  0  0  0
   28.0419   12.7760   27.4553 C   0  0  0  0  0  0  0  0  0  0  0  0
   28.5103   13.8460   28.2319 C   0  0  0  0  0  0  0  0  0  0  0  0
   28.2307   13.8889   29.5565 N   0  0  0  0  0  0  0  0  0  0  0  0
 27 28  1  0  0  0
 28 21  1  0  0  0
 21 22  1  0  0  0
 21 26  2  0  0  0
 22 23  2  0  0  0
 23 24  1  0  0  0
 24 17  1  0  0  0
 24 25  2  0  0  0
 17 18  1  0  0  0
 18 19  2  0  0  0
 18  1  1  0  0  0
  1  2  1  0  0  0
  1 10  2  0  0  0
  2  3  2  0  0  0
  3 31  1  0  0  0
  3  4  1  0  0  0
 31 33  1  0  0  0
 33 34  1  0  0  0
 33 38  2  0  0  0
 34 35  2  0  0  0
 35 36  1  0  0  0
 36 37  2  0  0  0
 37 38  1  0  0  0
  4  5  1  0  0  0
  4  9  2  0  0  0
  5  6  2  0  0  0
  6  7  1  0  0  0
  6 11  1  0  0  0
  7  8  2  0  0  0
  8  9  1  0  0  0
  9 10  1  0  0  0
 11 12  2  0  0  0
 11 13  1  0  0  0
 25 26  1  0  0  0
 27 29  1  0  0  0
 27 30  1  0  0  0
 17 20  1  0  0  0
 31 32  1  0  0  0
 12 14  1  0  0  0
 13 15  1  0  0  0
 13 16  1  0  0  0
M  END
> <minimizedAffinity>
-7.93780

$$$$
1SQA_UI1_A_1001


 38 41  0  0  0  0  0  0  0  0999 V2000
   23.7244   13.8527   32.6294 C   0  0  0  0  0  0  0  0  0  0  0  0
   24.7572   13.9811   31.6724 C   0  0  0  0  0  0  0  0  0  0  0  0
   25.5128   12.8881   31.3145 C   0  0  0  0  0  0  0  0  0  0  0  0
   25.2452   11.6095   31.9115 C   0  0  0  0  0  0  0  0  0  0  0  0
   26.0434   10.4970   31.5508 C   0  0  0  0  0  0  0  0  0  0  0  0
   25.7962    9.2297   32.1215 C   0  0  0  0  0  0  0  0  0  0  0  0
   24.7495    9.0605   33.0490 C   0  0  0  0  0  0  0  0  0  0  0  0
   23.9505   10.1707   33.4179 C   0  0  0  0  0  0  0  0  0  0  0  0
   24.2043   11.4536   32.8507 C   0  0  0  0  0  0  0  0  0  0  0  0
   23.4363   12.5807   33.2214 C   0  0  0  0  0  0  0  0  0  0  0  0
   26.6718    8.1115   31.6995 C   0  0  0  0  0  0  0  0  0  0  0  0
   27.7071    7.7910   32.4232 N   0  0  0  0  0  0  0  0  0  0  0  0
   26.4156    7.4287   30.5919 N   0  0  0  0  0  0  0  0  0  0  0  0
   27.9058    8.2917   33.2472 H   0  0  0  0  0  0  0  0  0  0  0  0
   25.6359    7.6631   30.0383 H   0  0  0  0  0  0  0  0  0  0  0  0
   27.0051    6.6874   30.3231 H   0  0  0  0  0  0  0  0  0  0  0  0
   21.9397   15.4615   32.3410 N   0  0  0  0  0  0  0  0  0  0  0  0
   23.0033   15.0992   33.0330 C   0  0  0  0  0  0  0  0  0  0  0  0
   23.3588   15.7191   34.0284 O   0  0  0  0  0  0  0  0  0  0  0  0
   21.7086   14.9715   31.5190 H   0  0  0  0  0  0  0  0  0  0  0  0
   19.1925   18.5483   33.4124 C   0  0  0  0  0  0  0  0  0  0  0  0
   18.7841   17.3884   32.7346 C   0  0  0  0  0  0  0  0  0  0  0  0
   19.7327   16.4055   32.4164 C   0  0  0  0  0  0  0  0  0  0  0  0
   21.1101   16.5607   32.7657 C   0  0  0  0  0  0  0  0  0  0  0  0
   21.5269   17.7164   33.4365 C   0  0  0  0  0  0  0  0  0  0  0  0
   20.5568   18.7163   33.7658 C   0  0  0  0  0  0  0  0  0  0  0  0
   18.6307   20.4978   34.8252 N   0  0  0  0  0  0  0  0  0  0  0  0
   18.1557   19.6282   33.7574 C   0  0  0  0  0  0  0  0  0  0  0  0
   17.9222   21.2021   35.0307 H   0  0  0  0  0  0  0  0  0  0  0  0
   19.4922   20.9579   34.5310 H   0  0  0  0  0  0  0  0  0  0  0  0
   26.5982   13.0668   30.3857 N   0  0  0  0  0  0  0  0  0  0  0  0
   26.7913   12.3401   29.7501 H   0  0  0  0  0  0  0  0  0  0  0  0
   27.4050   14.2333   30.3363 C   0  0  0  0  0  0  0  0  0  0  0  0
   27.2527   15.0726   29.2839 N   0  0  0  0  0  0  0  0  0  0  0  0
   27.9805   16.2081   29.1933 C   0  0  0  0  0  0  0  0  0  0  0  0
   28.9046   16.5292   30.2107 C   0  0  0  0  0  0  0  0  0  0  0  0
   29.0408   15.6356   31.2832 C   0  0  0  0  0  0  0  0  0  0  0  0
   28.2877   14.5106   31.3213 N   0  0  0  0  0  0  0  0  0  0  0  0
 27 28  1  0  0  0
 28 21  1  0  0  0
 21 22  1  0  0  0
 21 26  2  0  0  0
 22 23  2  0  0  0
 23 24  1  0  0  0
 24 17  1  0  0  0
 24 25  2  0  0  0
 17 18  1  0  0  0
 18 19  2  0  0  0
 18  1  1  0  0  0
  1  2  1  0  0  0
  1 10  2  0  0  0
  2  3  2  0  0  0
  3 31  1  0  0  0
  3  4  1  0  0  0
 31 33  1  0  0  0
 33 34  1  0  0  0
 33 38  2  0  0  0
 34 35  2  0  0  0
 35 36  1  0  0  0
 36 37  2  0  0  0
 37 38  1  0  0  0
  4  5  1  0  0  0
  4  9  2  0  0  0
  5  6  2  0  0  0
  6  7  1  0  0  0
  6 11  1  0  0  0
  7  8  2  0  0  0
  8  9  1  0  0  0
  9 10  1  0  0  0
 11 12  2  0  0  0
 11 13  1  0  0  0
 25 26  1  0  0  0
 27 29  1  0  0  0
 27 30  1  0  0  0
 17 20  1  0  0  0
 31 32  1  0  0  0
 12 14  1  0  0  0
 13 15  1  0  0  0
 13 16  1  0  0  0
M  END
> <minimizedAffinity>
-7.89593

$$$$
1SQA_UI1_A_1001


 38 41  0  0  0  0  0  0  0  0999 V2000
   24.9104   15.4410   30.8670 C   0  0  0  0  0  0  0  0  0  0  0  0
   24.8404   14.0702   31.2055 C   0  0  0  0  0  0  0  0  0  0  0  0
   25.8491   13.2104   30.8353 C   0  0  0  0  0  0  0  0  0  0  0  0
   26.9816   13.7108   30.1074 C   0  0  0  0  0  0  0  0  0  0  0  0
   28.0027   12.8124   29.7136 C   0  0  0  0  0  0  0  0  0  0  0  0
   29.1272   13.2823   29.0010 C   0  0  0  0  0  0  0  0  0  0  0  0
   29.2454   14.6492   28.6821 C   0  0  0  0  0  0  0  0  0  0  0  0
   28.2248   15.5524   29.0688 C   0  0  0  0  0  0  0  0  0  0  0  0
   27.0835   15.0791   29.7797 C   0  0  0  0  0  0  0  0  0  0  0  0
   26.0411   15.9568   30.1549 C   0  0  0  0  0  0  0  0  0  0  0  0
   30.1552   12.2860   28.6195 C   0  0  0  0  0  0  0  0  0  0  0  0
   29.8984   11.4160   27.6839 N   0  0  0  0  0  0  0  0  0  0  0  0
   31.3384   12.2673   29.2184 N   0  0  0  0  0  0  0  0  0  0  0  0
   29.0231   11.4216   27.2333 H   0  0  0  0  0  0  0  0  0  0  0  0
   31.5421   12.9204   29.9264 H   0  0  0  0  0  0  0  0  0  0  0  0
   32.0130   11.6004   28.9549 H   0  0  0  0  0  0  0  0  0  0  0  0
   22.9700   15.9219   32.2306 N   0  0  0  0  0  0  0  0  0  0  0  0
   23.7383   16.2978   31.2258 C   0  0  0  0  0  0  0  0  0  0  0  0
   23.5506   17.3577   30.6404 O   0  0  0  0  0  0  0  0  0  0  0  0
   23.1173   15.0428   32.6485 H   0  0  0  0  0  0  0  0  0  0  0  0
   19.6184   18.2579   33.4693 C   0  0  0  0  0  0  0  0  0  0  0  0
   19.4845   17.1630   32.6005 C   0  0  0  0  0  0  0  0  0  0  0  0
   20.6225   16.4289   32.2354 C   0  0  0  0  0  0  0  0  0  0  0  0
   21.9194   16.7738   32.7279 C   0  0  0  0  0  0  0  0  0  0  0  0
   22.0629   17.8673   33.5899 C   0  0  0  0  0  0  0  0  0  0  0  0
   20.8999   18.6123   33.9664 C   0  0  0  0  0  0  0  0  0  0  0  0
   18.7226   20.1900   34.7249 N   0  0  0  0  0  0  0  0  0  0  0  0
   18.3737   19.0661   33.8663 C   0  0  0  0  0  0  0  0  0  0  0  0
   17.8774   20.7054   34.9705 H   0  0  0  0  0  0  0  0  0  0  0  0
   19.3663   20.8081   34.2310 H   0  0  0  0  0  0  0  0  0  0  0  0
   25.7157   11.8095   31.1394 N   0  0  0  0  0  0  0  0  0  0  0  0
   26.0816   11.1573   30.4990 H   0  0  0  0  0  0  0  0  0  0  0  0
   25.0855   11.3174   32.3118 C   0  0  0  0  0  0  0  0  0  0  0  0
   25.8444   11.1399   33.4199 N   0  0  0  0  0  0  0  0  0  0  0  0
   25.2949   10.6917   34.5707 C   0  0  0  0  0  0  0  0  0  0  0  0
   23.9123   10.4126   34.6228 C   0  0  0  0  0  0  0  0  0  0  0  0
   23.1572   10.6023   33.4562 C   0  0  0  0  0  0  0  0  0  0  0  0
   23.7607   11.0509   32.3297 N   0  0  0  0  0  0  0  0  0  0  0  0
 27 28  1  0  0  0
 28 21  1  0  0  0
 21 22  1  0  0  0
 21 26  2  0  0  0
 22 23  2  0  0  0
 23 24  1  0  0  0
 24 17  1  0  0  0
 24 25  2  0  0  0
 17 18  1  0  0  0
 18 19  2  0  0  0
 18  1  1  0  0  0
  1  2  1  0  0  0
  1 10  2  0  0  0
  2  3  2  0  0  0
  3 31  1  0  0  0
  3  4  1  0  0  0
 31 33  1  0  0  0
 33 34  1  0  0  0
 33 38  2  0  0  0
 34 35  2  0  0  0
 35 36  1  0  0  0
 36 37  2  0  0  0
 37 38  1  0  0  0
  4  5  1  0  0  0
  4  9  2  0  0  0
  5  6  2  0  0  0
  6  7  1  0  0  0
  6 11  1  0  0  0
  7  8  2  0  0  0
  8  9  1  0  0  0
  9 10  1  0  0  0
 11 12  2  0  0  0
 11 13  1  0  0  0
 25 26  1  0  0  0
 27 29  1  0  0  0
 27 30  1  0  0  0
 17 20  1  0  0  0
 31 32  1  0  0  0
 12 14  1  0  0  0
 13 15  1  0  0  0
 13 16  1  0  0  0
M  END
> <minimizedAffinity>
-7.61604

$$$$
1SQA_UI1_A_1001


 38 41  0  0  0  0  0  0  0  0999 V2000
   24.6839   18.0382   36.4438 C   0  0  0  0  0  0  0  0  0  0  0  0
   23.6440   18.5724   35.6488 C   0  0  0  0  0  0  0  0  0  0  0  0
   23.3964   18.0632   34.3946 C   0  0  0  0  0  0  0  0  0  0  0  0
   24.1946   16.9790   33.8944 C   0  0  0  0  0  0  0  0  0  0  0  0
   23.9440   16.4779   32.5941 C   0  0  0  0  0  0  0  0  0  0  0  0
   24.7132   15.4101   32.0832 C   0  0  0  0  0  0  0  0  0  0  0  0
   25.7311   14.8303   32.8654 C   0  0  0  0  0  0  0  0  0  0  0  0
   25.9902   15.3304   34.1653 C   0  0  0  0  0  0  0  0  0  0  0  0
   25.2218   16.4151   34.6798 C   0  0  0  0  0  0  0  0  0  0  0  0
   25.4778   16.9467   35.9642 C   0  0  0  0  0  0  0  0  0  0  0  0
   24.3972   14.9385   30.7147 C   0  0  0  0  0  0  0  0  0  0  0  0
   23.2108   15.1446   30.2163 N   0  0  0  0  0  0  0  0  0  0  0  0
   25.3083   14.3078   29.9861 N   0  0  0  0  0  0  0  0  0  0  0  0
   22.5275   15.6118   30.7492 H   0  0  0  0  0  0  0  0  0  0  0  0
   26.2075   14.1473   30.3535 H   0  0  0  0  0  0  0  0  0  0  0  0
   25.0856   14.0002   29.0777 H   0  0  0  0  0  0  0  0  0  0  0  0
   25.9390   19.5698   37.8348 N   0  0  0  0  0  0  0  0  0  0  0  0
   24.9512   18.6982   37.7589 C   0  0  0  0  0  0  0  0  0  0  0  0
   24.2170   18.4805   38.7155 O   0  0  0  0  0  0  0  0  0  0  0  0
   26.5403   19.6865   37.0641 H   0  0  0  0  0  0  0  0  0  0  0  0
   26.4239   22.1906   41.1695 C   0  0  0  0  0  0  0  0  0  0  0  0
   25.7535   22.5863   40.0010 C   0  0  0  0  0  0  0  0  0  0  0  0
   25.6195   21.6773   38.9413 C   0  0  0  0  0  0  0  0  0  0  0  0
   26.1543   20.3543   39.0244 C   0  0  0  0  0  0  0  0  0  0  0  0
   26.8290   19.9532   40.1835 C   0  0  0  0  0  0  0  0  0  0  0  0
   26.9601   20.8800   41.2666 C   0  0  0  0  0  0  0  0  0  0  0  0
   25.3388   23.9183   42.5659 N   0  0  0  0  0  0  0  0  0  0  0  0
   26.5759   23.1865   42.3294 C   0  0  0  0  0  0  0  0  0  0  0  0
   25.4716   24.5695   43.3396 H   0  0  0  0  0  0  0  0  0  0  0  0
   24.5942   23.2611   42.7986 H   0  0  0  0  0  0  0  0  0  0  0  0
   22.3728   18.6726   33.5860 N   0  0  0  0  0  0  0  0  0  0  0  0
   22.6227   19.4350   33.0155 H   0  0  0  0  0  0  0  0  0  0  0  0
   21.0231   18.2341   33.5667 C   0  0  0  0  0  0  0  0  0  0  0  0
   20.0454   19.1694   33.6338 N   0  0  0  0  0  0  0  0  0  0  0  0
   18.7422   18.8120   33.6005 C   0  0  0  0  0  0  0  0  0  0  0  0
   18.3939   17.4490   33.4859 C   0  0  0  0  0  0  0  0  0  0  0  0
   19.4310   16.5067   33.4239 C   0  0  0  0  0  0  0  0  0  0  0  0
   20.7198   16.9212   33.4645 N   0  0  0  0  0  0  0  0  0  0  0  0
 27 28  1  0  0  0
 28 21  1  0  0  0
 21 22  1  0  0  0
 21 26  2  0  0  0
 22 23  2  0  0  0
 23 24  1  0  0  0
 24 17  1  0  0  0
 24 25  2  0  0  0
 17 18  1  0  0  0
 18 19  2  0  0  0
 18  1  1  0  0  0
  1  2  1  0  0  0
  1 10  2  0  0  0
  2  3  2  0  0  0
  3 31  1  0  0  0
  3  4  1  0  0  0
 31 33  1  0  0  0
 33 34  1  0  0  0
 33 38  2  0  0  0
 34 35  2  0  0  0
 35 36  1  0  0  0
 36 37  2  0  0  0
 37 38  1  0  0  0
  4  5  1  0  0  0
  4  9  2  0  0  0
  5  6  2  0  0  0
  6  7  1  0  0  0
  6 11  1  0  0  0
  7  8  2  0  0  0
  8  9  1  0  0  0
  9 10  1  0  0  0
 11 12  2  0  0  0
 11 13  1  0  0  0
 25 26  1  0  0  0
 27 29  1  0  0  0
 27 30  1  0  0  0
 17 20  1  0  0  0
 31 32  1  0  0  0
 12 14  1  0  0  0
 13 15  1  0  0  0
 13 16  1  0  0  0
M  END
> <minimizedAffinity>
-7.48427

$$$$
1SQA_UI1_A_1001


 38 41  0  0  0  0  0  0  0  0999 V2000
   25.4470   15.9652   34.4120 C   0  0  0  0  0  0  0  0  0  0  0  0
   24.9001   14.9012   33.6585 C   0  0  0  0  0  0  0  0  0  0  0  0
   23.5730   14.9175   33.2947 C   0  0  0  0  0  0  0  0  0  0  0  0
   22.7421   16.0249   33.6769 C   0  0  0  0  0  0  0  0  0  0  0  0
   21.3733   16.0199   33.3149 C   0  0  0  0  0  0  0  0  0  0  0  0
   20.5384   17.0994   33.6762 C   0  0  0  0  0  0  0  0  0  0  0  0
   21.0619   18.1929   34.3935 C   0  0  0  0  0  0  0  0  0  0  0  0
   22.4294   18.2016   34.7631 C   0  0  0  0  0  0  0  0  0  0  0  0
   23.2724   17.1082   34.4084 C   0  0  0  0  0  0  0  0  0  0  0  0
   24.6340   17.0832   34.7868 C   0  0  0  0  0  0  0  0  0  0  0  0
   19.1166   17.0261   33.2660 C   0  0  0  0  0  0  0  0  0  0  0  0
   18.3372   16.1224   33.7895 N   0  0  0  0  0  0  0  0  0  0  0  0
   18.6233   17.8711   32.3707 N   0  0  0  0  0  0  0  0  0  0  0  0
   18.6938   15.4905   34.4550 H   0  0  0  0  0  0  0  0  0  0  0  0
   19.2040   18.5574   31.9693 H   0  0  0  0  0  0  0  0  0  0  0  0
   17.6765   17.8120   32.1074 H   0  0  0  0  0  0  0  0  0  0  0  0
   27.1382   15.8319   36.1378 N   0  0  0  0  0  0  0  0  0  0  0  0
   26.8728   15.8380   34.8452 C   0  0  0  0  0  0  0  0  0  0  0  0
   27.7551   15.6705   34.0115 O   0  0  0  0  0  0  0  0  0  0  0  0
   26.4154   16.0172   36.7800 H   0  0  0  0  0  0  0  0  0  0  0  0
   31.1390   15.4014   37.5632 C   0  0  0  0  0  0  0  0  0  0  0  0
   30.5605   16.6599   37.3329 C   0  0  0  0  0  0  0  0  0  0  0  0
   29.2383   16.7371   36.8713 C   0  0  0  0  0  0  0  0  0  0  0  0
   28.4660   15.5593   36.6272 C   0  0  0  0  0  0  0  0  0  0  0  0
   29.0367   14.3005   36.8487 C   0  0  0  0  0  0  0  0  0  0  0  0
   30.3844   14.2230   37.3253 C   0  0  0  0  0  0  0  0  0  0  0  0
   33.0111   16.5631   38.6848 N   0  0  0  0  0  0  0  0  0  0  0  0
   32.5888   15.3148   38.0641 C   0  0  0  0  0  0  0  0  0  0  0  0
   33.9750   16.4740   39.0061 H   0  0  0  0  0  0  0  0  0  0  0  0
   32.4056   16.7696   39.4792 H   0  0  0  0  0  0  0  0  0  0  0  0
   23.0328   13.7883   32.5835 N   0  0  0  0  0  0  0  0  0  0  0  0
   22.3391   13.9542   31.9049 H   0  0  0  0  0  0  0  0  0  0  0  0
   23.4457   12.4491   32.8074 C   0  0  0  0  0  0  0  0  0  0  0  0
   22.7915   11.7265   33.7482 N   0  0  0  0  0  0  0  0  0  0  0  0
   23.1287   10.4403   33.9915 C   0  0  0  0  0  0  0  0  0  0  0  0
   24.1692    9.8385   33.2515 C   0  0  0  0  0  0  0  0  0  0  0  0
   24.8288   10.6168   32.2890 C   0  0  0  0  0  0  0  0  0  0  0  0
   24.4511   11.9020   32.0889 N   0  0  0  0  0  0  0  0  0  0  0  0
 27 28  1  0  0  0
 28 21  1  0  0  0
 21 22  1  0  0  0
 21 26  2  0  0  0
 22 23  2  0  0  0
 23 24  1  0  0  0
 24 17  1  0  0  0
 24 25  2  0  0  0
 17 18  1  0  0  0
 18 19  2  0  0  0
 18  1  1  0  0  0
  1  2  1  0  0  0
  1 10  2  0  0  0
  2  3  2  0  0  0
  3 31  1  0  0  0
  3  4  1  0  0  0
 31 33  1  0  0  0
 33 34  1  0  0  0
 33 38  2  0  0  0
 34 35  2  0  0  0
 35 36  1  0  0  0
 36 37  2  0  0  0
 37 38  1  0  0  0
  4  5  1  0  0  0
  4  9  2  0  0  0
  5  6  2  0  0  0
  6  7  1  0  0  0
  6 11  1  0  0  0
  7  8  2  0  0  0
  8  9  1  0  0  0
  9 10  1  0  0  0
 11 12  2  0  0  0
 11 13  1  0  0  0
 25 26  1  0  0  0
 27 29  1  0  0  0
 27 30  1  0  0  0
 17 20  1  0  0  0
 31 32  1  0  0  0
 12 14  1  0  0  0
 13 15  1  0  0  0
 13 16  1  0  0  0
M  END
> <minimizedAffinity>
-7.04900

$$$$
1SQA_UI1_A_1001


 38 41  0  0  0  0  0  0  0  0999 V2000
   25.3521   14.2699   31.8898 C   0  0  0  0  0  0  0  0  0  0  0  0
   25.7803   13.0353   32.4293 C   0  0  0  0  0  0  0  0  0  0  0  0
   26.7985   12.3303   31.8293 C   0  0  0  0  0  0  0  0  0  0  0  0
   27.4333   12.8559   30.6531 C   0  0  0  0  0  0  0  0  0  0  0  0
   28.4653   12.1111   30.0325 C   0  0  0  0  0  0  0  0  0  0  0  0
   29.1065   12.6098   28.8779 C   0  0  0  0  0  0  0  0  0  0  0  0
   28.7294   13.8551   28.3382 C   0  0  0  0  0  0  0  0  0  0  0  0
   27.6941   14.6029   28.9513 C   0  0  0  0  0  0  0  0  0  0  0  0
   27.0382   14.0971   30.1114 C   0  0  0  0  0  0  0  0  0  0  0  0
   25.9865   14.8136   30.7264 C   0  0  0  0  0  0  0  0  0  0  0  0
   30.1758   11.7763   28.2806 C   0  0  0  0  0  0  0  0  0  0  0  0
   31.2334   11.4793   28.9817 N   0  0  0  0  0  0  0  0  0  0  0  0
   30.0714   11.3255   27.0377 N   0  0  0  0  0  0  0  0  0  0  0  0
   31.3203   11.8092   29.9052 H   0  0  0  0  0  0  0  0  0  0  0  0
   29.2764   11.5443   26.4998 H   0  0  0  0  0  0  0  0  0  0  0  0
   30.7889   10.7719   26.6530 H   0  0  0  0  0  0  0  0  0  0  0  0
   23.6713   16.0090   31.9700 N   0  0  0  0  0  0  0  0  0  0  0  0
   24.1838   14.9367   32.5433 C   0  0  0  0  0  0  0  0  0  0  0  0
   23.6790   14.4462   33.5463 O   0  0  0  0  0  0  0  0  0  0  0  0
   24.1281   16.4066   31.1938 H   0  0  0  0  0  0  0  0  0  0  0  0
   19.8814   17.5724   33.1603 C   0  0  0  0  0  0  0  0  0  0  0  0
   19.9986   16.5306   32.2262 C   0  0  0  0  0  0  0  0  0  0  0  0
   21.2717   16.0540   31.8807 C   0  0  0  0  0  0  0  0  0  0  0  0
   22.4555   16.6092   32.4584 C   0  0  0  0  0  0  0  0  0  0  0  0
   22.3482   17.6519   33.3862 C   0  0  0  0  0  0  0  0  0  0  0  0
   21.0480   18.1336   33.7424 C   0  0  0  0  0  0  0  0  0  0  0  0
   17.6421   18.2482   32.3599 N   0  0  0  0  0  0  0  0  0  0  0  0
   18.4880   18.0990   33.5363 C   0  0  0  0  0  0  0  0  0  0  0  0
   16.7265   18.5984   32.6417 H   0  0  0  0  0  0  0  0  0  0  0  0
   17.5337   17.3432   31.9020 H   0  0  0  0  0  0  0  0  0  0  0  0
   27.1663   11.0463   32.3666 N   0  0  0  0  0  0  0  0  0  0  0  0
   27.9943   10.9828   32.8953 H   0  0  0  0  0  0  0  0  0  0  0  0
   26.4003    9.8669   32.1755 C   0  0  0  0  0  0  0  0  0  0  0  0
   26.7566    9.0277   31.1735 N   0  0  0  0  0  0  0  0  0  0  0  0
   26.0754    7.8805   30.9563 C   0  0  0  0  0  0  0  0  0  0  0  0
   24.9846    7.5471   31.7878 C   0  0  0  0  0  0  0  0  0  0  0  0
   24.6396    8.4408   32.8122 C   0  0  0  0  0  0  0  0  0  0  0  0
   25.3555    9.5779   32.9825 N   0  0  0  0  0  0  0  0  0  0  0  0
 27 28  1  0  0  0
 28 21  1  0  0  0
 21 22  1  0  0  0
 21 26  2  0  0  0
 22 23  2  0  0  0
 23 24  1  0  0  0
 24 17  1  0  0  0
 24 25  2  0  0  0
 17 18  1  0  0  0
 18 19  2  0  0  0
 18  1  1  0  0  0
  1  2  1  0  0  0
  1 10  2  0  0  0
  2  3  2  0  0  0
  3 31  1  0  0  0
  3  4  1  0  0  0
 31 33  1  0  0  0
 33 34  1  0  0  0
 33 38  2  0  0  0
 34 35  2  0  0  0
 35 36  1  0  0  0
 36 37  2  0  0  0
 37 38  1  0  0  0
  4  5  1  0  0  0
  4  9  2  0  0  0
  5  6  2  0  0  0
  6  7  1  0  0  0
  6 11  1  0  0  0
  7  8  2  0  0  0
  8  9  1  0  0  0
  9 10  1  0  0  0
 11 12  2  0  0  0
 11 13  1  0  0  0
 25 26  1  0  0  0
 27 29  1  0  0  0
 27 30  1  0  0  0
 17 20  1  0  0  0
 31 32  1  0  0  0
 12 14  1  0  0  0
 13 15  1  0  0  0
 13 16  1  0  0  0
M  END
> <minimizedAffinity>
-7.02376

$$$$
