5G4N_O83_A_1294


 21 23  0  0  0  0  0  0  0  0999 V2000
   92.8220   95.8627  -41.7278 C   0  0  0  0  0  0  0  0  0  0  0  0
   91.6407   95.3186  -41.2902 N   0  0  0  0  0  0  0  0  0  0  0  0
   92.7804   95.8474  -43.1226 C   0  0  0  0  0  0  0  0  0  0  0  0
   91.5314   95.2784  -43.5120 C   0  0  0  0  0  0  0  0  0  0  0  0
   90.8383   94.9515  -42.3438 C   0  0  0  0  0  0  0  0  0  0  0  0
   93.9104   96.3650  -41.0043 C   0  0  0  0  0  0  0  0  0  0  0  0
   94.9886   96.8575  -41.7430 C   0  0  0  0  0  0  0  0  0  0  0  0
   94.9730   96.8475  -43.1302 C   0  0  0  0  0  0  0  0  0  0  0  0
   93.8792   96.3506  -43.8416 C   0  0  0  0  0  0  0  0  0  0  0  0
   89.5626   94.3725  -42.3662 C   0  0  0  0  0  0  0  0  0  0  0  0
   88.9960   94.1196  -43.6191 C   0  0  0  0  0  0  0  0  0  0  0  0
   89.6682   94.4251  -44.8008 C   0  0  0  0  0  0  0  0  0  0  0  0
   90.9359   95.0073  -44.7551 C   0  0  0  0  0  0  0  0  0  0  0  0
   91.2908   95.1681  -39.8897 C   0  0  0  0  0  0  0  0  0  0  0  0
   90.5583   92.9765  -39.5053 F   0  0  0  0  0  0  0  0  0  0  0  0
   92.5910   93.2145  -40.1967 F   0  0  0  0  0  0  0  0  0  0  0  0
   91.6443   93.7772  -39.4043 C   0  0  0  0  0  0  0  0  0  0  0  0
   89.0433   94.1516  -46.1317 C   0  0  0  0  0  0  0  0  0  0  0  0
   89.8565   93.2956  -47.0419 N   0  0  0  0  0  0  0  0  0  0  0  0
   89.7942   91.8818  -46.5850 C   0  0  0  0  0  0  0  0  0  0  0  0
   90.8256   93.6135  -47.0309 H   0  0  0  0  0  0  0  0  0  0  0  0
  1  2  1  0  0  0
  1  3  2  0  0  0
  1  6  1  0  0  0
 15 17  1  0  0  0
  2  5  1  0  0  0
  2 14  1  0  0  0
  3  4  1  0  0  0
  3  9  1  0  0  0
 16 17  1  0  0  0
 19 18  1  0  0  0
 19 20  1  0  0  0
  4  5  2  0  0  0
  4 13  1  0  0  0
  5 10  1  0  0  0
  6  7  2  0  0  0
  7  8  1  0  0  0
  8  9  2  0  0  0
 10 11  2  0  0  0
 11 12  1  0  0  0
 12 13  2  0  0  0
 12 18  1  0  0  0
 14 17  1  0  0  0
 19 21  1  0  0  0
M  END
> <minimizedAffinity>
-0.00042

$$$$
5G4N_O83_A_1294


 21 23  0  0  0  0  0  0  0  0999 V2000
   88.6692   97.9254  -47.5263 C   0  0  0  0  0  0  0  0  0  0  0  0
   89.4698   97.5937  -46.4623 N   0  0  0  0  0  0  0  0  0  0  0  0
   88.1887   96.7279  -48.0577 C   0  0  0  0  0  0  0  0  0  0  0  0
   88.7242   95.6617  -47.2755 C   0  0  0  0  0  0  0  0  0  0  0  0
   89.5276   96.2321  -46.2850 C   0  0  0  0  0  0  0  0  0  0  0  0
   88.3343   99.1796  -48.0508 C   0  0  0  0  0  0  0  0  0  0  0  0
   87.4856   99.1958  -49.1601 C   0  0  0  0  0  0  0  0  0  0  0  0
   86.9999   98.0183  -49.7098 C   0  0  0  0  0  0  0  0  0  0  0  0
   87.3349   96.7732  -49.1742 C   0  0  0  0  0  0  0  0  0  0  0  0
   90.2069   95.4595  -45.3339 C   0  0  0  0  0  0  0  0  0  0  0  0
   90.0595   94.0714  -45.4126 C   0  0  0  0  0  0  0  0  0  0  0  0
   89.2736   93.4741  -46.3961 C   0  0  0  0  0  0  0  0  0  0  0  0
   88.6005   94.2634  -47.3300 C   0  0  0  0  0  0  0  0  0  0  0  0
   90.1524   98.5679  -45.6307 C   0  0  0  0  0  0  0  0  0  0  0  0
   92.4065   97.9653  -45.4227 F   0  0  0  0  0  0  0  0  0  0  0  0
   91.6975   98.4027  -47.4158 F   0  0  0  0  0  0  0  0  0  0  0  0
   91.5725   98.7736  -46.1168 C   0  0  0  0  0  0  0  0  0  0  0  0
   89.1242   91.9875  -46.4610 C   0  0  0  0  0  0  0  0  0  0  0  0
   89.4944   91.3769  -47.7696 N   0  0  0  0  0  0  0  0  0  0  0  0
   90.9747   91.3580  -47.9103 C   0  0  0  0  0  0  0  0  0  0  0  0
   89.0884   91.9259  -48.5273 H   0  0  0  0  0  0  0  0  0  0  0  0
  1  2  1  0  0  0
  1  3  2  0  0  0
  1  6  1  0  0  0
 15 17  1  0  0  0
  2  5  1  0  0  0
  2 14  1  0  0  0
  3  4  1  0  0  0
  3  9  1  0  0  0
 16 17  1  0  0  0
 19 18  1  0  0  0
 19 20  1  0  0  0
  4  5  2  0  0  0
  4 13  1  0  0  0
  5 10  1  0  0  0
  6  7  2  0  0  0
  7  8  1  0  0  0
  8  9  2  0  0  0
 10 11  2  0  0  0
 11 12  1  0  0  0
 12 13  2  0  0  0
 12 18  1  0  0  0
 14 17  1  0  0  0
 19 21  1  0  0  0
M  END
> <minimizedAffinity>
-0.00042

$$$$
5G4N_O83_A_1294


 21 23  0  0  0  0  0  0  0  0999 V2000
   90.4172   95.8689  -42.6245 C   0  0  0  0  0  0  0  0  0  0  0  0
   89.7390   94.7557  -42.1954 N   0  0  0  0  0  0  0  0  0  0  0  0
   91.7460   95.4846  -42.8094 C   0  0  0  0  0  0  0  0  0  0  0  0
   91.8458   94.1001  -42.4804 C   0  0  0  0  0  0  0  0  0  0  0  0
   90.5742   93.6690  -42.0942 C   0  0  0  0  0  0  0  0  0  0  0  0
   89.9609   97.1706  -42.8640 C   0  0  0  0  0  0  0  0  0  0  0  0
   90.9058   98.1027  -43.2989 C   0  0  0  0  0  0  0  0  0  0  0  0
   92.2336   97.7462  -43.4843 C   0  0  0  0  0  0  0  0  0  0  0  0
   92.6764   96.4430  -43.2492 C   0  0  0  0  0  0  0  0  0  0  0  0
   90.3160   92.3472  -41.7081 C   0  0  0  0  0  0  0  0  0  0  0  0
   91.3934   91.4562  -41.7137 C   0  0  0  0  0  0  0  0  0  0  0  0
   92.6746   91.8602  -42.0837 C   0  0  0  0  0  0  0  0  0  0  0  0
   92.9081   93.1807  -42.4708 C   0  0  0  0  0  0  0  0  0  0  0  0
   88.3177   94.7394  -41.9018 C   0  0  0  0  0  0  0  0  0  0  0  0
   87.9712   93.7604  -39.8021 F   0  0  0  0  0  0  0  0  0  0  0  0
   89.1482   95.5711  -39.8476 F   0  0  0  0  0  0  0  0  0  0  0  0
   88.0824   94.9582  -40.4212 C   0  0  0  0  0  0  0  0  0  0  0  0
   93.8134   90.8910  -42.0882 C   0  0  0  0  0  0  0  0  0  0  0  0
   94.9867   91.2988  -41.2637 N   0  0  0  0  0  0  0  0  0  0  0  0
   94.6725   91.1120  -39.8222 C   0  0  0  0  0  0  0  0  0  0  0  0
   95.2008   92.2803  -41.4400 H   0  0  0  0  0  0  0  0  0  0  0  0
  1  2  1  0  0  0
  1  3  2  0  0  0
  1  6  1  0  0  0
 15 17  1  0  0  0
  2  5  1  0  0  0
  2 14  1  0  0  0
  3  4  1  0  0  0
  3  9  1  0  0  0
 16 17  1  0  0  0
 19 18  1  0  0  0
 19 20  1  0  0  0
  4  5  2  0  0  0
  4 13  1  0  0  0
  5 10  1  0  0  0
  6  7  2  0  0  0
  7  8  1  0  0  0
  8  9  2  0  0  0
 10 11  2  0  0  0
 11 12  1  0  0  0
 12 13  2  0  0  0
 12 18  1  0  0  0
 14 17  1  0  0  0
 19 21  1  0  0  0
M  END
> <minimizedAffinity>
-0.00041

$$$$
5G4N_O83_A_1294


 21 23  0  0  0  0  0  0  0  0999 V2000
   90.0484   99.6460  -43.5200 C   0  0  0  0  0  0  0  0  0  0  0  0
   90.1814  100.8794  -44.1068 N   0  0  0  0  0  0  0  0  0  0  0  0
   91.3211   99.0742  -43.4912 C   0  0  0  0  0  0  0  0  0  0  0  0
   92.2277  100.0065  -44.0779 C   0  0  0  0  0  0  0  0  0  0  0  0
   91.4863  101.1276  -44.4593 C   0  0  0  0  0  0  0  0  0  0  0  0
   88.9128   99.0016  -43.0148 C   0  0  0  0  0  0  0  0  0  0  0  0
   89.0966   97.7277  -42.4722 C   0  0  0  0  0  0  0  0  0  0  0  0
   90.3508   97.1359  -42.4378 C   0  0  0  0  0  0  0  0  0  0  0  0
   91.4779   97.7908  -42.9382 C   0  0  0  0  0  0  0  0  0  0  0  0
   92.0749  102.2437  -45.0684 C   0  0  0  0  0  0  0  0  0  0  0  0
   93.4538  102.1972  -45.2946 C   0  0  0  0  0  0  0  0  0  0  0  0
   94.2169  101.0882  -44.9346 C   0  0  0  0  0  0  0  0  0  0  0  0
   93.6108   99.9895  -44.3232 C   0  0  0  0  0  0  0  0  0  0  0  0
   89.0779  101.7997  -44.3110 C   0  0  0  0  0  0  0  0  0  0  0  0
   89.0926  102.5466  -46.5312 F   0  0  0  0  0  0  0  0  0  0  0  0
   88.8214  100.4261  -46.2212 F   0  0  0  0  0  0  0  0  0  0  0  0
   88.5124  101.6433  -45.7078 C   0  0  0  0  0  0  0  0  0  0  0  0
   95.6918  101.0592  -45.1802 C   0  0  0  0  0  0  0  0  0  0  0  0
   96.1706   99.8987  -45.9841 N   0  0  0  0  0  0  0  0  0  0  0  0
   95.8123  100.1000  -47.4133 C   0  0  0  0  0  0  0  0  0  0  0  0
   95.7318   99.0441  -45.6413 H   0  0  0  0  0  0  0  0  0  0  0  0
  1  2  1  0  0  0
  1  3  2  0  0  0
  1  6  1  0  0  0
 15 17  1  0  0  0
  2  5  1  0  0  0
  2 14  1  0  0  0
  3  4  1  0  0  0
  3  9  1  0  0  0
 16 17  1  0  0  0
 19 18  1  0  0  0
 19 20  1  0  0  0
  4  5  2  0  0  0
  4 13  1  0  0  0
  5 10  1  0  0  0
  6  7  2  0  0  0
  7  8  1  0  0  0
  8  9  2  0  0  0
 10 11  2  0  0  0
 11 12  1  0  0  0
 12 13  2  0  0  0
 12 18  1  0  0  0
 14 17  1  0  0  0
 19 21  1  0  0  0
M  END
> <minimizedAffinity>
-0.00041

$$$$
5G4N_O83_A_1294


 21 23  0  0  0  0  0  0  0  0999 V2000
   89.8091   98.2849  -42.2635 C   0  0  0  0  0  0  0  0  0  0  0  0
   89.7626   97.8259  -43.5559 N   0  0  0  0  0  0  0  0  0  0  0  0
   90.8648   99.1951  -42.1971 C   0  0  0  0  0  0  0  0  0  0  0  0
   91.4519   99.2723  -43.4950 C   0  0  0  0  0  0  0  0  0  0  0  0
   90.7447   98.4005  -44.3266 C   0  0  0  0  0  0  0  0  0  0  0  0
   89.0045   97.9707  -41.1617 C   0  0  0  0  0  0  0  0  0  0  0  0
   89.3045   98.6090  -39.9561 C   0  0  0  0  0  0  0  0  0  0  0  0
   90.3527   99.5131  -39.8637 C   0  0  0  0  0  0  0  0  0  0  0  0
   91.1443   99.8243  -40.9709 C   0  0  0  0  0  0  0  0  0  0  0  0
   91.0610   98.2352  -45.6815 C   0  0  0  0  0  0  0  0  0  0  0  0
   92.1328   98.9788  -46.1844 C   0  0  0  0  0  0  0  0  0  0  0  0
   92.8629   99.8479  -45.3762 C   0  0  0  0  0  0  0  0  0  0  0  0
   92.5266  100.0019  -44.0303 C   0  0  0  0  0  0  0  0  0  0  0  0
   88.7867   96.8653  -44.0371 C   0  0  0  0  0  0  0  0  0  0  0  0
   89.8901   95.1503  -45.1897 F   0  0  0  0  0  0  0  0  0  0  0  0
   90.3826   95.3899  -43.1002 F   0  0  0  0  0  0  0  0  0  0  0  0
   89.3575   95.4629  -43.9859 C   0  0  0  0  0  0  0  0  0  0  0  0
   94.0031  100.6388  -45.9338 C   0  0  0  0  0  0  0  0  0  0  0  0
   95.3002  100.4557  -45.2220 N   0  0  0  0  0  0  0  0  0  0  0  0
   95.8822   99.1343  -45.5777 C   0  0  0  0  0  0  0  0  0  0  0  0
   95.1436  100.4977  -44.2150 H   0  0  0  0  0  0  0  0  0  0  0  0
  1  2  1  0  0  0
  1  3  2  0  0  0
  1  6  1  0  0  0
 15 17  1  0  0  0
  2  5  1  0  0  0
  2 14  1  0  0  0
  3  4  1  0  0  0
  3  9  1  0  0  0
 16 17  1  0  0  0
 19 18  1  0  0  0
 19 20  1  0  0  0
  4  5  2  0  0  0
  4 13  1  0  0  0
  5 10  1  0  0  0
  6  7  2  0  0  0
  7  8  1  0  0  0
  8  9  2  0  0  0
 10 11  2  0  0  0
 11 12  1  0  0  0
 12 13  2  0  0  0
 12 18  1  0  0  0
 14 17  1  0  0  0
 19 21  1  0  0  0
M  END
> <minimizedAffinity>
-0.00041

$$$$
5G4N_O83_A_1294


 21 23  0  0  0  0  0  0  0  0999 V2000
   96.5326   91.3482  -40.7525 C   0  0  0  0  0  0  0  0  0  0  0  0
   96.0270   91.5679  -42.0091 N   0  0  0  0  0  0  0  0  0  0  0  0
   95.6606   91.9645  -39.8540 C   0  0  0  0  0  0  0  0  0  0  0  0
   94.6092   92.5611  -40.6116 C   0  0  0  0  0  0  0  0  0  0  0  0
   94.8658   92.3013  -41.9601 C   0  0  0  0  0  0  0  0  0  0  0  0
   97.6798   90.6558  -40.3465 C   0  0  0  0  0  0  0  0  0  0  0  0
   97.9369   90.6061  -38.9745 C   0  0  0  0  0  0  0  0  0  0  0  0
   97.0881   91.2162  -38.0623 C   0  0  0  0  0  0  0  0  0  0  0  0
   95.9428   91.8981  -38.4780 C   0  0  0  0  0  0  0  0  0  0  0  0
   94.0184   92.7458  -42.9835 C   0  0  0  0  0  0  0  0  0  0  0  0
   92.8890   93.4789  -42.6069 C   0  0  0  0  0  0  0  0  0  0  0  0
   92.6134   93.7623  -41.2708 C   0  0  0  0  0  0  0  0  0  0  0  0
   93.4680   93.3043  -40.2668 C   0  0  0  0  0  0  0  0  0  0  0  0
   96.6437   91.0718  -43.2258 C   0  0  0  0  0  0  0  0  0  0  0  0
   96.8357   92.8248  -44.7677 F   0  0  0  0  0  0  0  0  0  0  0  0
   97.9071   93.0473  -42.9052 F   0  0  0  0  0  0  0  0  0  0  0  0
   97.5340   92.1344  -43.8370 C   0  0  0  0  0  0  0  0  0  0  0  0
   91.3973   94.5438  -40.8873 C   0  0  0  0  0  0  0  0  0  0  0  0
   91.6667   95.7616  -40.0706 N   0  0  0  0  0  0  0  0  0  0  0  0
   92.2306   96.8295  -40.9383 C   0  0  0  0  0  0  0  0  0  0  0  0
   92.3346   95.5351  -39.3336 H   0  0  0  0  0  0  0  0  0  0  0  0
  1  2  1  0  0  0
  1  3  2  0  0  0
  1  6  1  0  0  0
 15 17  1  0  0  0
  2  5  1  0  0  0
  2 14  1  0  0  0
  3  4  1  0  0  0
  3  9  1  0  0  0
 16 17  1  0  0  0
 19 18  1  0  0  0
 19 20  1  0  0  0
  4  5  2  0  0  0
  4 13  1  0  0  0
  5 10  1  0  0  0
  6  7  2  0  0  0
  7  8  1  0  0  0
  8  9  2  0  0  0
 10 11  2  0  0  0
 11 12  1  0  0  0
 12 13  2  0  0  0
 12 18  1  0  0  0
 14 17  1  0  0  0
 19 21  1  0  0  0
M  END
> <minimizedAffinity>
-0.00041

$$$$
5G4N_O83_A_1294


 21 23  0  0  0  0  0  0  0  0999 V2000
   89.2309   92.0536  -40.4052 C   0  0  0  0  0  0  0  0  0  0  0  0
   90.1818   93.0385  -40.3113 N   0  0  0  0  0  0  0  0  0  0  0  0
   89.4010   91.4469  -41.6504 C   0  0  0  0  0  0  0  0  0  0  0  0
   90.4897   92.0975  -42.3036 C   0  0  0  0  0  0  0  0  0  0  0  0
   90.9581   93.0942  -41.4439 C   0  0  0  0  0  0  0  0  0  0  0  0
   88.2469   91.6551  -39.4924 C   0  0  0  0  0  0  0  0  0  0  0  0
   87.4106   90.6060  -39.8809 C   0  0  0  0  0  0  0  0  0  0  0  0
   87.5562   89.9912  -41.1160 C   0  0  0  0  0  0  0  0  0  0  0  0
   88.5457   90.3921  -42.0158 C   0  0  0  0  0  0  0  0  0  0  0  0
   92.0346   93.9266  -41.7774 C   0  0  0  0  0  0  0  0  0  0  0  0
   92.6334   93.7304  -43.0255 C   0  0  0  0  0  0  0  0  0  0  0  0
   92.1809   92.7514  -43.9078 C   0  0  0  0  0  0  0  0  0  0  0  0
   91.1105   91.9290  -43.5526 C   0  0  0  0  0  0  0  0  0  0  0  0
   90.3441   93.8962  -39.1517 C   0  0  0  0  0  0  0  0  0  0  0  0
   90.4393   96.1308  -39.8481 F   0  0  0  0  0  0  0  0  0  0  0  0
   88.6152   95.0561  -40.2773 F   0  0  0  0  0  0  0  0  0  0  0  0
   89.5952   95.1982  -39.3499 C   0  0  0  0  0  0  0  0  0  0  0  0
   92.8377   92.5533  -45.2367 C   0  0  0  0  0  0  0  0  0  0  0  0
   91.9202   92.6409  -46.4085 N   0  0  0  0  0  0  0  0  0  0  0  0
   91.5659   94.0631  -46.6596 C   0  0  0  0  0  0  0  0  0  0  0  0
   91.0717   92.1086  -46.2158 H   0  0  0  0  0  0  0  0  0  0  0  0
  1  2  1  0  0  0
  1  3  2  0  0  0
  1  6  1  0  0  0
 15 17  1  0  0  0
  2  5  1  0  0  0
  2 14  1  0  0  0
  3  4  1  0  0  0
  3  9  1  0  0  0
 16 17  1  0  0  0
 19 18  1  0  0  0
 19 20  1  0  0  0
  4  5  2  0  0  0
  4 13  1  0  0  0
  5 10  1  0  0  0
  6  7  2  0  0  0
  7  8  1  0  0  0
  8  9  2  0  0  0
 10 11  2  0  0  0
 11 12  1  0  0  0
 12 13  2  0  0  0
 12 18  1  0  0  0
 14 17  1  0  0  0
 19 21  1  0  0  0
M  END
> <minimizedAffinity>
-0.00040

$$$$
5G4N_O83_A_1294


 21 23  0  0  0  0  0  0  0  0999 V2000
   88.8910   96.2980  -43.1005 C   0  0  0  0  0  0  0  0  0  0  0  0
   89.9261   95.4155  -43.2814 N   0  0  0  0  0  0  0  0  0  0  0  0
   89.1436   96.9763  -41.9074 C   0  0  0  0  0  0  0  0  0  0  0  0
   90.3690   96.4751  -41.3759 C   0  0  0  0  0  0  0  0  0  0  0  0
   90.8361   95.4944  -42.2546 C   0  0  0  0  0  0  0  0  0  0  0  0
   87.7651   96.5478  -43.8944 C   0  0  0  0  0  0  0  0  0  0  0  0
   86.8718   97.5198  -43.4382 C   0  0  0  0  0  0  0  0  0  0  0  0
   87.0982   98.2031  -42.2523 C   0  0  0  0  0  0  0  0  0  0  0  0
   88.2282   97.9509  -41.4719 C   0  0  0  0  0  0  0  0  0  0  0  0
   92.0305   94.7965  -42.0325 C   0  0  0  0  0  0  0  0  0  0  0  0
   92.7516   95.1124  -40.8771 C   0  0  0  0  0  0  0  0  0  0  0  0
   92.3049   96.0781  -39.9774 C   0  0  0  0  0  0  0  0  0  0  0  0
   91.1150   96.7657  -40.2215 C   0  0  0  0  0  0  0  0  0  0  0  0
   90.0394   94.5268  -44.4233 C   0  0  0  0  0  0  0  0  0  0  0  0
   90.4647   92.3494  -43.6712 F   0  0  0  0  0  0  0  0  0  0  0  0
   88.5993   93.2446  -43.0509 F   0  0  0  0  0  0  0  0  0  0  0  0
   89.4685   93.1637  -44.0894 C   0  0  0  0  0  0  0  0  0  0  0  0
   93.0929   96.4057  -38.7493 C   0  0  0  0  0  0  0  0  0  0  0  0
   92.3405   96.2767  -37.4689 N   0  0  0  0  0  0  0  0  0  0  0  0
   92.1784   94.8383  -37.1282 C   0  0  0  0  0  0  0  0  0  0  0  0
   91.4213   96.7071  -37.5704 H   0  0  0  0  0  0  0  0  0  0  0  0
  1  2  1  0  0  0
  1  3  2  0  0  0
  1  6  1  0  0  0
 15 17  1  0  0  0
  2  5  1  0  0  0
  2 14  1  0  0  0
  3  4  1  0  0  0
  3  9  1  0  0  0
 16 17  1  0  0  0
 19 18  1  0  0  0
 19 20  1  0  0  0
  4  5  2  0  0  0
  4 13  1  0  0  0
  5 10  1  0  0  0
  6  7  2  0  0  0
  7  8  1  0  0  0
  8  9  2  0  0  0
 10 11  2  0  0  0
 11 12  1  0  0  0
 12 13  2  0  0  0
 12 18  1  0  0  0
 14 17  1  0  0  0
 19 21  1  0  0  0
M  END
> <minimizedAffinity>
-0.00040

$$$$
5G4N_O83_A_1294


 21 23  0  0  0  0  0  0  0  0999 V2000
   89.5685   94.4912  -43.5130 C   0  0  0  0  0  0  0  0  0  0  0  0
   90.3305   95.2791  -44.3387 N   0  0  0  0  0  0  0  0  0  0  0  0
   90.3019   93.3276  -43.2770 C   0  0  0  0  0  0  0  0  0  0  0  0
   91.5346   93.4418  -43.9861 C   0  0  0  0  0  0  0  0  0  0  0  0
   91.5246   94.6727  -44.6469 C   0  0  0  0  0  0  0  0  0  0  0  0
   88.3025   94.7183  -42.9601 C   0  0  0  0  0  0  0  0  0  0  0  0
   87.7767   93.7112  -42.1475 C   0  0  0  0  0  0  0  0  0  0  0  0
   88.4841   92.5432  -41.9030 C   0  0  0  0  0  0  0  0  0  0  0  0
   89.7492   92.3303  -42.4539 C   0  0  0  0  0  0  0  0  0  0  0  0
   92.5959   95.1071  -45.4386 C   0  0  0  0  0  0  0  0  0  0  0  0
   93.6945   94.2502  -45.5558 C   0  0  0  0  0  0  0  0  0  0  0  0
   93.7277   93.0123  -44.9170 C   0  0  0  0  0  0  0  0  0  0  0  0
   92.6519   92.6021  -44.1281 C   0  0  0  0  0  0  0  0  0  0  0  0
   89.9205   96.5897  -44.8085 C   0  0  0  0  0  0  0  0  0  0  0  0
   90.2064   96.7047  -47.1307 F   0  0  0  0  0  0  0  0  0  0  0  0
   88.8157   95.2244  -46.3951 F   0  0  0  0  0  0  0  0  0  0  0  0
   89.2750   96.4819  -46.1750 C   0  0  0  0  0  0  0  0  0  0  0  0
   94.9141   92.1117  -45.0505 C   0  0  0  0  0  0  0  0  0  0  0  0
   94.6078   90.7417  -45.5524 N   0  0  0  0  0  0  0  0  0  0  0  0
   94.3331   90.7954  -47.0128 C   0  0  0  0  0  0  0  0  0  0  0  0
   93.7885   90.3774  -45.0660 H   0  0  0  0  0  0  0  0  0  0  0  0
  1  2  1  0  0  0
  1  3  2  0  0  0
  1  6  1  0  0  0
 15 17  1  0  0  0
  2  5  1  0  0  0
  2 14  1  0  0  0
  3  4  1  0  0  0
  3  9  1  0  0  0
 16 17  1  0  0  0
 19 18  1  0  0  0
 19 20  1  0  0  0
  4  5  2  0  0  0
  4 13  1  0  0  0
  5 10  1  0  0  0
  6  7  2  0  0  0
  7  8  1  0  0  0
  8  9  2  0  0  0
 10 11  2  0  0  0
 11 12  1  0  0  0
 12 13  2  0  0  0
 12 18  1  0  0  0
 14 17  1  0  0  0
 19 21  1  0  0  0
M  END
> <minimizedAffinity>
-0.00039

$$$$
5G4N_O83_A_1294


 21 23  0  0  0  0  0  0  0  0999 V2000
   96.2190   98.9011  -45.8133 C   0  0  0  0  0  0  0  0  0  0  0  0
   95.5867   98.3112  -44.7478 N   0  0  0  0  0  0  0  0  0  0  0  0
   96.0399   98.0538  -46.9076 C   0  0  0  0  0  0  0  0  0  0  0  0
   95.2745   96.9335  -46.4667 C   0  0  0  0  0  0  0  0  0  0  0  0
   95.0077   97.1179  -45.1077 C   0  0  0  0  0  0  0  0  0  0  0  0
   96.9246  100.1078  -45.8924 C   0  0  0  0  0  0  0  0  0  0  0  0
   97.4667  100.4439  -47.1350 C   0  0  0  0  0  0  0  0  0  0  0  0
   97.3072   99.6150  -48.2360 C   0  0  0  0  0  0  0  0  0  0  0  0
   96.5954   98.4171  -48.1473 C   0  0  0  0  0  0  0  0  0  0  0  0
   94.2659   96.1959  -44.3577 C   0  0  0  0  0  0  0  0  0  0  0  0
   93.7977   95.0585  -45.0224 C   0  0  0  0  0  0  0  0  0  0  0  0
   94.0574   94.8428  -46.3743 C   0  0  0  0  0  0  0  0  0  0  0  0
   94.7934   95.7777  -47.1040 C   0  0  0  0  0  0  0  0  0  0  0  0
   95.5329   98.8913  -43.4185 C   0  0  0  0  0  0  0  0  0  0  0  0
   96.1710   97.2792  -41.8433 F   0  0  0  0  0  0  0  0  0  0  0  0
   97.6489   97.8360  -43.3170 F   0  0  0  0  0  0  0  0  0  0  0  0
   96.6425   98.3301  -42.5529 C   0  0  0  0  0  0  0  0  0  0  0  0
   93.5437   93.6222  -47.0692 C   0  0  0  0  0  0  0  0  0  0  0  0
   94.5871   92.8012  -47.7472 N   0  0  0  0  0  0  0  0  0  0  0  0
   95.3635   92.0426  -46.7309 C   0  0  0  0  0  0  0  0  0  0  0  0
   95.2158   93.4134  -48.2672 H   0  0  0  0  0  0  0  0  0  0  0  0
  1  2  1  0  0  0
  1  3  2  0  0  0
  1  6  1  0  0  0
 15 17  1  0  0  0
  2  5  1  0  0  0
  2 14  1  0  0  0
  3  4  1  0  0  0
  3  9  1  0  0  0
 16 17  1  0  0  0
 19 18  1  0  0  0
 19 20  1  0  0  0
  4  5  2  0  0  0
  4 13  1  0  0  0
  5 10  1  0  0  0
  6  7  2  0  0  0
  7  8  1  0  0  0
  8  9  2  0  0  0
 10 11  2  0  0  0
 11 12  1  0  0  0
 12 13  2  0  0  0
 12 18  1  0  0  0
 14 17  1  0  0  0
 19 21  1  0  0  0
M  END
> <minimizedAffinity>
-0.00039

$$$$
