5IOZ_6C4_A_301


 15 16  0  0  0  0  0  0  0  0999 V2000
   28.4903   14.1335   -1.2854 C   0  0  0  0  0  0  0  0  0  0  0  0
   28.4173   13.7572   -0.0918 O   0  0  0  0  0  0  0  0  0  0  0  0
   28.1514   13.3087   -2.2837 N   0  0  0  0  0  0  0  0  0  0  0  0
   28.3673   13.5281   -3.2188 H   0  0  0  0  0  0  0  0  0  0  0  0
   28.9440   15.5026   -1.6875 C   0  0  0  0  0  0  0  0  0  0  0  0
   31.0428   16.4808   -2.4340 C   0  0  0  0  0  0  0  0  0  0  0  0
   29.5296   16.2382   -0.4900 C   0  0  0  0  0  0  0  0  0  0  0  0
   30.0769   15.3222   -2.7191 C   0  0  0  0  0  0  0  0  0  0  0  0
   30.5336   17.1542   -1.1523 C   0  0  0  0  0  0  0  0  0  0  0  0
   27.4339   12.0421   -1.9340 C   0  0  0  0  0  0  0  0  0  0  0  0
   27.9525   10.8214   -2.6421 C   0  0  0  0  0  0  0  0  0  0  0  0
   28.6656    9.6319   -4.5185 C   0  0  0  0  0  0  0  0  0  0  0  0
   27.0687    9.5667   -2.6693 C   0  0  0  0  0  0  0  0  0  0  0  0
   27.6710    8.7376   -3.7949 C   0  0  0  0  0  0  0  0  0  0  0  0
   28.4096   11.0532   -4.0791 C   0  0  0  0  0  0  0  0  0  0  0  0
 12 15  1  0  0  0
 12 14  1  0  0  0
 15 11  1  0  0  0
 14 13  1  0  0  0
  8  6  1  0  0  0
  8  5  1  0  0  0
 13 11  1  0  0  0
 11 10  1  0  0  0
  6  9  1  0  0  0
  3 10  1  0  0  0
  3  1  1  0  0  0
  5  1  1  0  0  0
  5  7  1  0  0  0
  1  2  2  0  0  0
  9  7  1  0  0  0
  3  4  1  0  0  0
M  END
> <minimizedAffinity>
-9.06147

$$$$
5IOZ_6C4_A_301


 15 16  0  0  0  0  0  0  0  0999 V2000
   27.7217   11.9340   -2.0076 C   0  0  0  0  0  0  0  0  0  0  0  0
   27.0276   12.0900   -0.9754 O   0  0  0  0  0  0  0  0  0  0  0  0
   28.1891   12.9910   -2.6828 N   0  0  0  0  0  0  0  0  0  0  0  0
   28.5820   12.8872   -3.5795 H   0  0  0  0  0  0  0  0  0  0  0  0
   28.0842   10.5889   -2.5566 C   0  0  0  0  0  0  0  0  0  0  0  0
   27.9548    9.5172   -4.7370 C   0  0  0  0  0  0  0  0  0  0  0  0
   26.8806    9.6576   -2.5112 C   0  0  0  0  0  0  0  0  0  0  0  0
   28.4592   10.7885   -4.0398 C   0  0  0  0  0  0  0  0  0  0  0  0
   27.1567    8.7405   -3.6810 C   0  0  0  0  0  0  0  0  0  0  0  0
   28.0958   14.3361   -2.0320 C   0  0  0  0  0  0  0  0  0  0  0  0
   29.4226   15.0030   -1.7967 C   0  0  0  0  0  0  0  0  0  0  0  0
   30.8260   16.5899   -0.8186 C   0  0  0  0  0  0  0  0  0  0  0  0
   30.1023   15.7065   -2.9795 C   0  0  0  0  0  0  0  0  0  0  0  0
   31.1291   16.6080   -2.3087 C   0  0  0  0  0  0  0  0  0  0  0  0
   29.4511   15.9937   -0.6367 C   0  0  0  0  0  0  0  0  0  0  0  0
 12 15  1  0  0  0
 12 14  1  0  0  0
 15 11  1  0  0  0
 14 13  1  0  0  0
  8  6  1  0  0  0
  8  5  1  0  0  0
 13 11  1  0  0  0
 11 10  1  0  0  0
  6  9  1  0  0  0
  3 10  1  0  0  0
  3  1  1  0  0  0
  5  1  1  0  0  0
  5  7  1  0  0  0
  1  2  2  0  0  0
  9  7  1  0  0  0
  3  4  1  0  0  0
M  END
> <minimizedAffinity>
-8.73204

$$$$
5IOZ_6C4_A_301


 15 16  0  0  0  0  0  0  0  0999 V2000
   28.1056   13.2897   -2.3749 C   0  0  0  0  0  0  0  0  0  0  0  0
   27.1184   13.8596   -1.8531 O   0  0  0  0  0  0  0  0  0  0  0  0
   29.1171   14.0041   -2.8829 N   0  0  0  0  0  0  0  0  0  0  0  0
   29.8061   13.5804   -3.4441 H   0  0  0  0  0  0  0  0  0  0  0  0
   28.2390   11.8012   -2.4670 C   0  0  0  0  0  0  0  0  0  0  0  0
   27.4459   10.0837   -3.9968 C   0  0  0  0  0  0  0  0  0  0  0  0
   27.0610   11.1215   -1.7827 C   0  0  0  0  0  0  0  0  0  0  0  0
   28.1815   11.4306   -3.9636 C   0  0  0  0  0  0  0  0  0  0  0  0
   26.9519    9.8327   -2.5656 C   0  0  0  0  0  0  0  0  0  0  0  0
   29.1681   15.4676   -2.5713 C   0  0  0  0  0  0  0  0  0  0  0  0
   30.1744   15.8414   -1.5186 C   0  0  0  0  0  0  0  0  0  0  0  0
   30.8773   16.9583    0.4056 C   0  0  0  0  0  0  0  0  0  0  0  0
   31.4248   16.6189   -1.9521 C   0  0  0  0  0  0  0  0  0  0  0  0
   31.9519   17.1929   -0.6446 C   0  0  0  0  0  0  0  0  0  0  0  0
   29.6043   16.5859   -0.3150 C   0  0  0  0  0  0  0  0  0  0  0  0
 12 15  1  0  0  0
 12 14  1  0  0  0
 15 11  1  0  0  0
 14 13  1  0  0  0
  8  6  1  0  0  0
  8  5  1  0  0  0
 13 11  1  0  0  0
 11 10  1  0  0  0
  6  9  1  0  0  0
  3 10  1  0  0  0
  3  1  1  0  0  0
  5  1  1  0  0  0
  5  7  1  0  0  0
  1  2  2  0  0  0
  9  7  1  0  0  0
  3  4  1  0  0  0
M  END
> <minimizedAffinity>
-8.28968

$$$$
5IOZ_6C4_A_301


 15 16  0  0  0  0  0  0  0  0999 V2000
   31.5987   17.7186   -0.0896 C   0  0  0  0  0  0  0  0  0  0  0  0
   32.6018   16.9766   -0.2108 O   0  0  0  0  0  0  0  0  0  0  0  0
   30.7184   17.8461   -1.0898 N   0  0  0  0  0  0  0  0  0  0  0  0
   30.0304   18.5501   -1.0738 H   0  0  0  0  0  0  0  0  0  0  0  0
   31.3021   18.5004    1.1525 C   0  0  0  0  0  0  0  0  0  0  0  0
   32.2580   20.4584    2.2349 C   0  0  0  0  0  0  0  0  0  0  0  0
   32.1425   17.9869    2.3135 C   0  0  0  0  0  0  0  0  0  0  0  0
   31.7258   19.9595    0.8842 C   0  0  0  0  0  0  0  0  0  0  0  0
   32.2956   19.2322    3.1571 C   0  0  0  0  0  0  0  0  0  0  0  0
   30.8125   16.8848   -2.2338 C   0  0  0  0  0  0  0  0  0  0  0  0
   29.7180   15.8547   -2.2680 C   0  0  0  0  0  0  0  0  0  0  0  0
   28.3658   14.2019   -1.3277 C   0  0  0  0  0  0  0  0  0  0  0  0
   29.8958   14.6356   -3.1838 C   0  0  0  0  0  0  0  0  0  0  0  0
   28.8770   13.6410   -2.6456 C   0  0  0  0  0  0  0  0  0  0  0  0
   29.3018   15.3084   -0.9056 C   0  0  0  0  0  0  0  0  0  0  0  0
 12 15  1  0  0  0
 12 14  1  0  0  0
 15 11  1  0  0  0
 14 13  1  0  0  0
  8  6  1  0  0  0
  8  5  1  0  0  0
 13 11  1  0  0  0
 11 10  1  0  0  0
  6  9  1  0  0  0
  3 10  1  0  0  0
  3  1  1  0  0  0
  5  1  1  0  0  0
  5  7  1  0  0  0
  1  2  2  0  0  0
  9  7  1  0  0  0
  3  4  1  0  0  0
M  END
> <minimizedAffinity>
-8.15238

$$$$
5IOZ_6C4_A_301


 15 16  0  0  0  0  0  0  0  0999 V2000
   28.6416   12.1011   -3.8838 C   0  0  0  0  0  0  0  0  0  0  0  0
   29.5483   11.8938   -4.7243 O   0  0  0  0  0  0  0  0  0  0  0  0
   28.7080   13.1470   -3.0512 N   0  0  0  0  0  0  0  0  0  0  0  0
   28.1001   13.2214   -2.2803 H   0  0  0  0  0  0  0  0  0  0  0  0
   27.4352   11.2250   -3.7459 C   0  0  0  0  0  0  0  0  0  0  0  0
   26.7302    9.4803   -2.2038 C   0  0  0  0  0  0  0  0  0  0  0  0
   27.6607    9.8989   -4.4592 C   0  0  0  0  0  0  0  0  0  0  0  0
   27.2639   10.9191   -2.2434 C   0  0  0  0  0  0  0  0  0  0  0  0
   26.7964    8.9615   -3.6467 C   0  0  0  0  0  0  0  0  0  0  0  0
   29.7353   14.2001   -3.3285 C   0  0  0  0  0  0  0  0  0  0  0  0
   29.6177   15.4229   -2.4616 C   0  0  0  0  0  0  0  0  0  0  0  0
   30.4598   17.2996   -1.3603 C   0  0  0  0  0  0  0  0  0  0  0  0
   29.1993   15.2374   -0.9964 C   0  0  0  0  0  0  0  0  0  0  0  0
   29.6109   16.5502   -0.3452 C   0  0  0  0  0  0  0  0  0  0  0  0
   30.8493   16.3232   -2.4435 C   0  0  0  0  0  0  0  0  0  0  0  0
 12 15  1  0  0  0
 12 14  1  0  0  0
 15 11  1  0  0  0
 14 13  1  0  0  0
  8  6  1  0  0  0
  8  5  1  0  0  0
 13 11  1  0  0  0
 11 10  1  0  0  0
  6  9  1  0  0  0
  3 10  1  0  0  0
  3  1  1  0  0  0
  5  1  1  0  0  0
  5  7  1  0  0  0
  1  2  2  0  0  0
  9  7  1  0  0  0
  3  4  1  0  0  0
M  END
> <minimizedAffinity>
-7.94671

$$$$
5IOZ_6C4_A_301


 15 16  0  0  0  0  0  0  0  0999 V2000
   30.1369   16.1140   -1.5009 C   0  0  0  0  0  0  0  0  0  0  0  0
   30.9873   16.2161   -2.4163 O   0  0  0  0  0  0  0  0  0  0  0  0
   30.2767   16.7981   -0.3590 N   0  0  0  0  0  0  0  0  0  0  0  0
   29.7173   16.5960    0.4256 H   0  0  0  0  0  0  0  0  0  0  0  0
   28.9205   15.2468   -1.6045 C   0  0  0  0  0  0  0  0  0  0  0  0
   28.2008   13.1483   -0.6058 C   0  0  0  0  0  0  0  0  0  0  0  0
   29.1272   14.1705   -2.6612 C   0  0  0  0  0  0  0  0  0  0  0  0
   28.7516   14.5353   -0.2460 C   0  0  0  0  0  0  0  0  0  0  0  0
   28.2550   13.0525   -2.1366 C   0  0  0  0  0  0  0  0  0  0  0  0
   31.3102   17.8803   -0.3118 C   0  0  0  0  0  0  0  0  0  0  0  0
   31.4046   18.5886    1.0110 C   0  0  0  0  0  0  0  0  0  0  0  0
   32.0779   20.3277    2.4134 C   0  0  0  0  0  0  0  0  0  0  0  0
   32.1659   17.8991    2.1518 C   0  0  0  0  0  0  0  0  0  0  0  0
   32.4390   19.0347    3.1279 C   0  0  0  0  0  0  0  0  0  0  0  0
   31.9382   20.0163    0.9429 C   0  0  0  0  0  0  0  0  0  0  0  0
 12 15  1  0  0  0
 12 14  1  0  0  0
 15 11  1  0  0  0
 14 13  1  0  0  0
  8  6  1  0  0  0
  8  5  1  0  0  0
 13 11  1  0  0  0
 11 10  1  0  0  0
  6  9  1  0  0  0
  3 10  1  0  0  0
  3  1  1  0  0  0
  5  1  1  0  0  0
  5  7  1  0  0  0
  1  2  2  0  0  0
  9  7  1  0  0  0
  3  4  1  0  0  0
M  END
> <minimizedAffinity>
-7.90689

$$$$
5IOZ_6C4_A_301


 15 16  0  0  0  0  0  0  0  0999 V2000
   30.9985   17.3726   -0.2145 C   0  0  0  0  0  0  0  0  0  0  0  0
   29.8065   17.3647    0.1736 O   0  0  0  0  0  0  0  0  0  0  0  0
   31.3357   16.8427   -1.3965 N   0  0  0  0  0  0  0  0  0  0  0  0
   32.2787   16.6871   -1.6326 H   0  0  0  0  0  0  0  0  0  0  0  0
   32.1175   17.9649    0.5850 C   0  0  0  0  0  0  0  0  0  0  0  0
   32.4755   18.4963    2.9320 C   0  0  0  0  0  0  0  0  0  0  0  0
   31.9302   19.4695    0.7222 C   0  0  0  0  0  0  0  0  0  0  0  0
   32.0367   17.3574    2.0009 C   0  0  0  0  0  0  0  0  0  0  0  0
   32.6039   19.7440    2.0476 C   0  0  0  0  0  0  0  0  0  0  0  0
   30.2341   16.4938   -2.3486 C   0  0  0  0  0  0  0  0  0  0  0  0
   29.7721   15.0656   -2.2638 C   0  0  0  0  0  0  0  0  0  0  0  0
   29.0541   13.0383   -3.1688 C   0  0  0  0  0  0  0  0  0  0  0  0
   28.4391   14.7735   -1.5611 C   0  0  0  0  0  0  0  0  0  0  0  0
   28.0875   13.3733   -2.0435 C   0  0  0  0  0  0  0  0  0  0  0  0
   29.7253   14.3215   -3.5950 C   0  0  0  0  0  0  0  0  0  0  0  0
 12 15  1  0  0  0
 12 14  1  0  0  0
 15 11  1  0  0  0
 14 13  1  0  0  0
  8  6  1  0  0  0
  8  5  1  0  0  0
 13 11  1  0  0  0
 11 10  1  0  0  0
  6  9  1  0  0  0
  3 10  1  0  0  0
  3  1  1  0  0  0
  5  1  1  0  0  0
  5  7  1  0  0  0
  1  2  2  0  0  0
  9  7  1  0  0  0
  3  4  1  0  0  0
M  END
> <minimizedAffinity>
-7.89279

$$$$
5IOZ_6C4_A_301


 15 16  0  0  0  0  0  0  0  0999 V2000
   29.2823   14.4441   -2.9635 C   0  0  0  0  0  0  0  0  0  0  0  0
   30.2211   14.4054   -3.7933 O   0  0  0  0  0  0  0  0  0  0  0  0
   28.4255   13.4216   -2.8530 N   0  0  0  0  0  0  0  0  0  0  0  0
   27.5923   13.5112   -2.3364 H   0  0  0  0  0  0  0  0  0  0  0  0
   29.0474   15.6024   -2.0443 C   0  0  0  0  0  0  0  0  0  0  0  0
   30.4555   17.2594   -0.9530 C   0  0  0  0  0  0  0  0  0  0  0  0
   29.1891   15.1630   -0.5935 C   0  0  0  0  0  0  0  0  0  0  0  0
   30.1559   16.6382   -2.3245 C   0  0  0  0  0  0  0  0  0  0  0  0
   29.6590   16.4378    0.0698 C   0  0  0  0  0  0  0  0  0  0  0  0
   28.7738   12.1375   -3.5395 C   0  0  0  0  0  0  0  0  0  0  0  0
   27.7062   11.0821   -3.4566 C   0  0  0  0  0  0  0  0  0  0  0  0
   26.4410    9.4637   -2.3502 C   0  0  0  0  0  0  0  0  0  0  0  0
   27.8748    9.8101   -4.2991 C   0  0  0  0  0  0  0  0  0  0  0  0
   26.9074    8.8295   -3.6514 C   0  0  0  0  0  0  0  0  0  0  0  0
   27.3656   10.6170   -2.0440 C   0  0  0  0  0  0  0  0  0  0  0  0
 12 15  1  0  0  0
 12 14  1  0  0  0
 15 11  1  0  0  0
 14 13  1  0  0  0
  8  6  1  0  0  0
  8  5  1  0  0  0
 13 11  1  0  0  0
 11 10  1  0  0  0
  6  9  1  0  0  0
  3 10  1  0  0  0
  3  1  1  0  0  0
  5  1  1  0  0  0
  5  7  1  0  0  0
  1  2  2  0  0  0
  9  7  1  0  0  0
  3  4  1  0  0  0
M  END
> <minimizedAffinity>
-7.64357

$$$$
5IOZ_6C4_A_301


 15 16  0  0  0  0  0  0  0  0999 V2000
   27.9678   12.8332   -1.5463 C   0  0  0  0  0  0  0  0  0  0  0  0
   27.8489   12.5818   -0.3239 O   0  0  0  0  0  0  0  0  0  0  0  0
   27.7860   11.8738   -2.4619 N   0  0  0  0  0  0  0  0  0  0  0  0
   28.0443   12.0136   -3.4016 H   0  0  0  0  0  0  0  0  0  0  0  0
   28.3076   14.1923   -2.0749 C   0  0  0  0  0  0  0  0  0  0  0  0
   30.2679   15.2137   -3.0914 C   0  0  0  0  0  0  0  0  0  0  0  0
   28.9712   15.0303   -0.9908 C   0  0  0  0  0  0  0  0  0  0  0  0
   29.3395   13.9963   -3.2050 C   0  0  0  0  0  0  0  0  0  0  0  0
   29.8553   15.9456   -1.8071 C   0  0  0  0  0  0  0  0  0  0  0  0
   27.1777   10.5817   -2.0126 C   0  0  0  0  0  0  0  0  0  0  0  0
   26.8338    9.6377   -3.1311 C   0  0  0  0  0  0  0  0  0  0  0  0
   27.0201    7.6362   -4.3158 C   0  0  0  0  0  0  0  0  0  0  0  0
   27.1642   10.0630   -4.5685 C   0  0  0  0  0  0  0  0  0  0  0  0
   27.1088    8.7539   -5.3432 C   0  0  0  0  0  0  0  0  0  0  0  0
   27.3749    8.2203   -2.9698 C   0  0  0  0  0  0  0  0  0  0  0  0
 12 15  1  0  0  0
 12 14  1  0  0  0
 15 11  1  0  0  0
 14 13  1  0  0  0
  8  6  1  0  0  0
  8  5  1  0  0  0
 13 11  1  0  0  0
 11 10  1  0  0  0
  6  9  1  0  0  0
  3 10  1  0  0  0
  3  1  1  0  0  0
  5  1  1  0  0  0
  5  7  1  0  0  0
  1  2  2  0  0  0
  9  7  1  0  0  0
  3  4  1  0  0  0
M  END
> <minimizedAffinity>
-7.31220

$$$$
5IOZ_6C4_A_301


 15 16  0  0  0  0  0  0  0  0999 V2000
   27.1206    8.3349   -4.0952 C   0  0  0  0  0  0  0  0  0  0  0  0
   26.8258    8.9775   -5.1304 O   0  0  0  0  0  0  0  0  0  0  0  0
   27.2530    8.9588   -2.9183 N   0  0  0  0  0  0  0  0  0  0  0  0
   27.6500    8.5004   -2.1428 H   0  0  0  0  0  0  0  0  0  0  0  0
   27.3379    6.8535   -4.0834 C   0  0  0  0  0  0  0  0  0  0  0  0
   26.0573    4.9106   -4.7937 C   0  0  0  0  0  0  0  0  0  0  0  0
   26.7427    6.2420   -2.8226 C   0  0  0  0  0  0  0  0  0  0  0  0
   26.5692    6.2709   -5.2876 C   0  0  0  0  0  0  0  0  0  0  0  0
   26.3828    4.8517   -3.2950 C   0  0  0  0  0  0  0  0  0  0  0  0
   26.7786   10.3752   -2.8181 C   0  0  0  0  0  0  0  0  0  0  0  0
   27.8820   11.3954   -2.7690 C   0  0  0  0  0  0  0  0  0  0  0  0
   28.7538   13.5211   -2.3622 C   0  0  0  0  0  0  0  0  0  0  0  0
   28.5561   11.8008   -4.0871 C   0  0  0  0  0  0  0  0  0  0  0  0
   29.2565   13.1058   -3.7361 C   0  0  0  0  0  0  0  0  0  0  0  0
   27.5289   12.6952   -2.0523 C   0  0  0  0  0  0  0  0  0  0  0  0
 12 15  1  0  0  0
 12 14  1  0  0  0
 15 11  1  0  0  0
 14 13  1  0  0  0
  8  6  1  0  0  0
  8  5  1  0  0  0
 13 11  1  0  0  0
 11 10  1  0  0  0
  6  9  1  0  0  0
  3 10  1  0  0  0
  3  1  1  0  0  0
  5  1  1  0  0  0
  5  7  1  0  0  0
  1  2  2  0  0  0
  9  7  1  0  0  0
  3  4  1  0  0  0
M  END
> <minimizedAffinity>
-6.46055

$$$$
