2NN1_M28_A_311


 18 18  0  0  0  0  0  0  0  0999 V2000
  -17.5013    0.0958  -19.5661 C   0  0  0  0  0  0  0  0  0  0  0  0
  -18.2396    1.2494  -20.0041 C   0  0  0  0  0  0  0  0  0  0  0  0
  -19.0214    1.9599  -19.0793 C   0  0  0  0  0  0  0  0  0  0  0  0
  -19.0808    1.5422  -17.7288 C   0  0  0  0  0  0  0  0  0  0  0  0
  -18.3214    0.4042  -17.3467 C   0  0  0  0  0  0  0  0  0  0  0  0
  -17.5400   -0.3194  -18.2273 C   0  0  0  0  0  0  0  0  0  0  0  0
  -16.5168   -0.8255  -20.6699 S   0  0  0  0  0  0  0  0  0  0  0  0
  -15.8949    0.1511  -21.5254 O   0  0  0  0  0  0  0  0  0  0  0  0
  -17.4064   -1.7847  -21.3072 O   0  0  0  0  0  0  0  0  0  0  0  0
  -15.4570   -1.5878  -19.7556 N   0  0  0  0  0  0  0  0  0  0  0  0
  -14.8383   -0.9081  -19.3134 H   0  0  0  0  0  0  0  0  0  0  0  0
  -14.9064   -2.2243  -20.3319 H   0  0  0  0  0  0  0  0  0  0  0  0
  -19.8922    2.2533  -16.7173 C   0  0  0  0  0  0  0  0  0  0  0  0
  -21.3497    1.8859  -17.0253 C   0  0  0  0  0  0  0  0  0  0  0  0
  -22.3419    1.4839  -15.9691 C   0  0  0  0  0  0  0  0  0  0  0  0
  -22.7088    0.2939  -15.8762 O   0  0  0  0  0  0  0  0  0  0  0  0
  -22.8290    2.3522  -15.2012 O   0  0  0  0  0  0  0  0  0  0  0  0
  -22.5544    3.2454  -15.2700 H   0  0  0  0  0  0  0  0  0  0  0  0
  1  7  1  0  0  0
  1  2  2  0  0  0
  1  6  1  0  0  0
  2  3  1  0  0  0
  3  4  2  0  0  0
  4  5  1  0  0  0
  4 13  1  0  0  0
  5  6  2  0  0  0
  7  8  2  0  0  0
  7  9  2  0  0  0
  7 10  1  0  0  0
 13 14  1  0  0  0
 14 15  1  0  0  0
 15 16  2  0  0  0
 15 17  1  0  0  0
 10 11  1  0  0  0
 10 12  1  0  0  0
 17 18  1  0  0  0
M  END
> <minimizedAffinity>
-6.73010

$$$$
2NN1_M28_A_311


 18 18  0  0  0  0  0  0  0  0999 V2000
  -17.4883   -0.0191  -19.5027 C   0  0  0  0  0  0  0  0  0  0  0  0
  -17.5316   -0.5112  -18.1523 C   0  0  0  0  0  0  0  0  0  0  0  0
  -18.2426    0.2081  -17.1785 C   0  0  0  0  0  0  0  0  0  0  0  0
  -18.9097    1.4066  -17.5255 C   0  0  0  0  0  0  0  0  0  0  0  0
  -18.8459    1.8405  -18.8766 C   0  0  0  0  0  0  0  0  0  0  0  0
  -18.1578    1.1593  -19.8625 C   0  0  0  0  0  0  0  0  0  0  0  0
  -16.6196   -0.8687  -20.7516 S   0  0  0  0  0  0  0  0  0  0  0  0
  -15.9704    0.1579  -21.5243 O   0  0  0  0  0  0  0  0  0  0  0  0
  -17.6005   -1.6904  -21.4446 O   0  0  0  0  0  0  0  0  0  0  0  0
  -15.5753   -1.7963  -19.9840 N   0  0  0  0  0  0  0  0  0  0  0  0
  -14.8922   -1.2122  -19.5016 H   0  0  0  0  0  0  0  0  0  0  0  0
  -15.0959   -2.3963  -20.6552 H   0  0  0  0  0  0  0  0  0  0  0  0
  -19.6684    2.2029  -16.5367 C   0  0  0  0  0  0  0  0  0  0  0  0
  -18.6139    2.9736  -15.7316 C   0  0  0  0  0  0  0  0  0  0  0  0
  -18.2834    2.6684  -14.2965 C   0  0  0  0  0  0  0  0  0  0  0  0
  -17.9240    3.5854  -13.5289 O   0  0  0  0  0  0  0  0  0  0  0  0
  -18.3356    1.4841  -13.8777 O   0  0  0  0  0  0  0  0  0  0  0  0
  -18.6051    0.7952  -14.4528 H   0  0  0  0  0  0  0  0  0  0  0  0
  1  7  1  0  0  0
  1  2  2  0  0  0
  1  6  1  0  0  0
  2  3  1  0  0  0
  3  4  2  0  0  0
  4  5  1  0  0  0
  4 13  1  0  0  0
  5  6  2  0  0  0
  7  8  2  0  0  0
  7  9  2  0  0  0
  7 10  1  0  0  0
 13 14  1  0  0  0
 14 15  1  0  0  0
 15 16  2  0  0  0
 15 17  1  0  0  0
 10 11  1  0  0  0
 10 12  1  0  0  0
 17 18  1  0  0  0
M  END
> <minimizedAffinity>
-6.50068

$$$$
2NN1_M28_A_311


 18 18  0  0  0  0  0  0  0  0999 V2000
  -19.9754    1.6614  -17.5054 C   0  0  0  0  0  0  0  0  0  0  0  0
  -20.3746    2.0872  -18.8196 C   0  0  0  0  0  0  0  0  0  0  0  0
  -19.4935    1.9123  -19.8986 C   0  0  0  0  0  0  0  0  0  0  0  0
  -18.2243    1.3223  -19.6919 C   0  0  0  0  0  0  0  0  0  0  0  0
  -17.8857    0.9075  -18.3761 C   0  0  0  0  0  0  0  0  0  0  0  0
  -18.7263    1.0617  -17.2902 C   0  0  0  0  0  0  0  0  0  0  0  0
  -21.0266    1.8557  -16.1293 S   0  0  0  0  0  0  0  0  0  0  0  0
  -20.6138    3.0881  -15.5106 O   0  0  0  0  0  0  0  0  0  0  0  0
  -20.8878    0.6440  -15.3354 O   0  0  0  0  0  0  0  0  0  0  0  0
  -22.4992    1.9476  -16.7319 N   0  0  0  0  0  0  0  0  0  0  0  0
  -22.5871    2.7992  -17.2864 H   0  0  0  0  0  0  0  0  0  0  0  0
  -23.1776    1.9661  -15.9705 H   0  0  0  0  0  0  0  0  0  0  0  0
  -17.2587    1.1198  -20.7937 C   0  0  0  0  0  0  0  0  0  0  0  0
  -17.4172   -0.3465  -21.2166 C   0  0  0  0  0  0  0  0  0  0  0  0
  -16.4844   -1.4400  -20.7741 C   0  0  0  0  0  0  0  0  0  0  0  0
  -15.4902   -1.7339  -21.4702 O   0  0  0  0  0  0  0  0  0  0  0  0
  -16.7243   -2.0826  -19.7204 O   0  0  0  0  0  0  0  0  0  0  0  0
  -17.4700   -1.8630  -19.1972 H   0  0  0  0  0  0  0  0  0  0  0  0
  1  7  1  0  0  0
  1  2  2  0  0  0
  1  6  1  0  0  0
  2  3  1  0  0  0
  3  4  2  0  0  0
  4  5  1  0  0  0
  4 13  1  0  0  0
  5  6  2  0  0  0
  7  8  2  0  0  0
  7  9  2  0  0  0
  7 10  1  0  0  0
 13 14  1  0  0  0
 14 15  1  0  0  0
 15 16  2  0  0  0
 15 17  1  0  0  0
 10 11  1  0  0  0
 10 12  1  0  0  0
 17 18  1  0  0  0
M  END
> <minimizedAffinity>
-6.49332

$$$$
2NN1_M28_A_311


 18 18  0  0  0  0  0  0  0  0999 V2000
  -17.6251    0.0697  -19.5553 C   0  0  0  0  0  0  0  0  0  0  0  0
  -18.2899    1.3396  -19.4415 C   0  0  0  0  0  0  0  0  0  0  0  0
  -18.8180    1.7329  -18.2015 C   0  0  0  0  0  0  0  0  0  0  0  0
  -18.6959    0.8852  -17.0753 C   0  0  0  0  0  0  0  0  0  0  0  0
  -18.0181   -0.3523  -17.2400 C   0  0  0  0  0  0  0  0  0  0  0  0
  -17.4844   -0.7729  -18.4433 C   0  0  0  0  0  0  0  0  0  0  0  0
  -16.9529   -0.4712  -21.0693 S   0  0  0  0  0  0  0  0  0  0  0  0
  -16.2212    0.6577  -21.5816 O   0  0  0  0  0  0  0  0  0  0  0  0
  -18.0737   -0.9441  -21.8678 O   0  0  0  0  0  0  0  0  0  0  0  0
  -15.9963   -1.6901  -20.6956 N   0  0  0  0  0  0  0  0  0  0  0  0
  -15.2142   -1.3494  -20.1364 H   0  0  0  0  0  0  0  0  0  0  0  0
  -15.6417   -2.1185  -21.5506 H   0  0  0  0  0  0  0  0  0  0  0  0
  -19.2382    1.2511  -15.7490 C   0  0  0  0  0  0  0  0  0  0  0  0
  -19.5350   -0.0787  -15.0436 C   0  0  0  0  0  0  0  0  0  0  0  0
  -19.0377   -0.4118  -13.6639 C   0  0  0  0  0  0  0  0  0  0  0  0
  -18.6699    0.5004  -12.8945 O   0  0  0  0  0  0  0  0  0  0  0  0
  -18.9594   -1.6116  -13.2967 O   0  0  0  0  0  0  0  0  0  0  0  0
  -19.2351   -2.2969  -13.8731 H   0  0  0  0  0  0  0  0  0  0  0  0
  1  7  1  0  0  0
  1  2  2  0  0  0
  1  6  1  0  0  0
  2  3  1  0  0  0
  3  4  2  0  0  0
  4  5  1  0  0  0
  4 13  1  0  0  0
  5  6  2  0  0  0
  7  8  2  0  0  0
  7  9  2  0  0  0
  7 10  1  0  0  0
 13 14  1  0  0  0
 14 15  1  0  0  0
 15 16  2  0  0  0
 15 17  1  0  0  0
 10 11  1  0  0  0
 10 12  1  0  0  0
 17 18  1  0  0  0
M  END
> <minimizedAffinity>
-6.07916

$$$$
2NN1_M28_A_311


 18 18  0  0  0  0  0  0  0  0999 V2000
  -20.6894    1.0519  -15.9441 C   0  0  0  0  0  0  0  0  0  0  0  0
  -19.6517    0.0695  -15.7838 C   0  0  0  0  0  0  0  0  0  0  0  0
  -18.6610   -0.0546  -16.7708 C   0  0  0  0  0  0  0  0  0  0  0  0
  -18.6860    0.7807  -17.9125 C   0  0  0  0  0  0  0  0  0  0  0  0
  -19.7256    1.7432  -18.0145 C   0  0  0  0  0  0  0  0  0  0  0  0
  -20.7167    1.8959  -17.0637 C   0  0  0  0  0  0  0  0  0  0  0  0
  -21.9458    1.2488  -14.7528 S   0  0  0  0  0  0  0  0  0  0  0  0
  -22.7644    2.3267  -15.2429 O   0  0  0  0  0  0  0  0  0  0  0  0
  -21.2722    1.4623  -13.4807 O   0  0  0  0  0  0  0  0  0  0  0  0
  -22.7280   -0.1397  -14.7299 N   0  0  0  0  0  0  0  0  0  0  0  0
  -23.1966   -0.2807  -15.6249 H   0  0  0  0  0  0  0  0  0  0  0  0
  -23.4209   -0.1273  -13.9815 H   0  0  0  0  0  0  0  0  0  0  0  0
  -17.6687    0.6868  -18.9820 C   0  0  0  0  0  0  0  0  0  0  0  0
  -16.6566   -0.3596  -18.4976 C   0  0  0  0  0  0  0  0  0  0  0  0
  -16.4423   -1.6815  -19.1822 C   0  0  0  0  0  0  0  0  0  0  0  0
  -15.8908   -1.7239  -20.3017 O   0  0  0  0  0  0  0  0  0  0  0  0
  -16.8497   -2.7417  -18.6432 O   0  0  0  0  0  0  0  0  0  0  0  0
  -17.2637   -2.7112  -17.8032 H   0  0  0  0  0  0  0  0  0  0  0  0
  1  7  1  0  0  0
  1  2  2  0  0  0
  1  6  1  0  0  0
  2  3  1  0  0  0
  3  4  2  0  0  0
  4  5  1  0  0  0
  4 13  1  0  0  0
  5  6  2  0  0  0
  7  8  2  0  0  0
  7  9  2  0  0  0
  7 10  1  0  0  0
 13 14  1  0  0  0
 14 15  1  0  0  0
 15 16  2  0  0  0
 15 17  1  0  0  0
 10 11  1  0  0  0
 10 12  1  0  0  0
 17 18  1  0  0  0
M  END
> <minimizedAffinity>
-6.07768

$$$$
2NN1_M28_A_311


 18 18  0  0  0  0  0  0  0  0999 V2000
  -20.2394    0.7665  -16.0542 C   0  0  0  0  0  0  0  0  0  0  0  0
  -20.5680    1.7572  -17.0432 C   0  0  0  0  0  0  0  0  0  0  0  0
  -19.7481    1.9016  -18.1737 C   0  0  0  0  0  0  0  0  0  0  0  0
  -18.6089    1.0784  -18.3360 C   0  0  0  0  0  0  0  0  0  0  0  0
  -18.3378    0.1069  -17.3358 C   0  0  0  0  0  0  0  0  0  0  0  0
  -19.1216   -0.0657  -16.2108 C   0  0  0  0  0  0  0  0  0  0  0  0
  -21.2191    0.5445  -14.6303 S   0  0  0  0  0  0  0  0  0  0  0  0
  -21.3253    1.8523  -14.0382 O   0  0  0  0  0  0  0  0  0  0  0  0
  -20.5606   -0.4832  -13.8379 O   0  0  0  0  0  0  0  0  0  0  0  0
  -22.6224    0.0080  -15.1623 N   0  0  0  0  0  0  0  0  0  0  0  0
  -23.0763    0.7344  -15.7162 H   0  0  0  0  0  0  0  0  0  0  0  0
  -23.2159   -0.2357  -14.3694 H   0  0  0  0  0  0  0  0  0  0  0  0
  -17.7115    1.1936  -19.5059 C   0  0  0  0  0  0  0  0  0  0  0  0
  -17.0867   -0.1962  -19.6848 C   0  0  0  0  0  0  0  0  0  0  0  0
  -17.2602   -1.0271  -20.9263 C   0  0  0  0  0  0  0  0  0  0  0  0
  -18.2108   -0.7996  -21.7033 O   0  0  0  0  0  0  0  0  0  0  0  0
  -16.4681   -1.9739  -21.1647 O   0  0  0  0  0  0  0  0  0  0  0  0
  -15.7544   -2.1456  -20.5823 H   0  0  0  0  0  0  0  0  0  0  0  0
  1  7  1  0  0  0
  1  2  2  0  0  0
  1  6  1  0  0  0
  2  3  1  0  0  0
  3  4  2  0  0  0
  4  5  1  0  0  0
  4 13  1  0  0  0
  5  6  2  0  0  0
  7  8  2  0  0  0
  7  9  2  0  0  0
  7 10  1  0  0  0
 13 14  1  0  0  0
 14 15  1  0  0  0
 15 16  2  0  0  0
 15 17  1  0  0  0
 10 11  1  0  0  0
 10 12  1  0  0  0
 17 18  1  0  0  0
M  END
> <minimizedAffinity>
-5.93155

$$$$
2NN1_M28_A_311


 18 18  0  0  0  0  0  0  0  0999 V2000
  -19.9390    2.3086  -16.2493 C   0  0  0  0  0  0  0  0  0  0  0  0
  -20.7460    1.9819  -17.3937 C   0  0  0  0  0  0  0  0  0  0  0  0
  -20.1237    1.7234  -18.6254 C   0  0  0  0  0  0  0  0  0  0  0  0
  -18.7146    1.7848  -18.7370 C   0  0  0  0  0  0  0  0  0  0  0  0
  -17.9645    2.0989  -17.5723 C   0  0  0  0  0  0  0  0  0  0  0  0
  -18.5408    2.3579  -16.3433 C   0  0  0  0  0  0  0  0  0  0  0  0
  -20.6568    2.6410  -14.6967 S   0  0  0  0  0  0  0  0  0  0  0  0
  -22.0774    2.6388  -14.9298 O   0  0  0  0  0  0  0  0  0  0  0  0
  -20.0695    3.8896  -14.2344 O   0  0  0  0  0  0  0  0  0  0  0  0
  -20.1991    1.4405  -13.7536 N   0  0  0  0  0  0  0  0  0  0  0  0
  -20.6152    0.5702  -14.0850 H   0  0  0  0  0  0  0  0  0  0  0  0
  -20.5067    1.6223  -12.7982 H   0  0  0  0  0  0  0  0  0  0  0  0
  -18.0114    1.5254  -20.0119 C   0  0  0  0  0  0  0  0  0  0  0  0
  -17.5797    0.0543  -19.9527 C   0  0  0  0  0  0  0  0  0  0  0  0
  -16.5707   -0.5497  -20.8903 C   0  0  0  0  0  0  0  0  0  0  0  0
  -15.9136    0.1833  -21.6585 O   0  0  0  0  0  0  0  0  0  0  0  0
  -16.4130   -1.7965  -20.9256 O   0  0  0  0  0  0  0  0  0  0  0  0
  -16.9055   -2.3475  -20.3496 H   0  0  0  0  0  0  0  0  0  0  0  0
  1  7  1  0  0  0
  1  2  2  0  0  0
  1  6  1  0  0  0
  2  3  1  0  0  0
  3  4  2  0  0  0
  4  5  1  0  0  0
  4 13  1  0  0  0
  5  6  2  0  0  0
  7  8  2  0  0  0
  7  9  2  0  0  0
  7 10  1  0  0  0
 13 14  1  0  0  0
 14 15  1  0  0  0
 15 16  2  0  0  0
 15 17  1  0  0  0
 10 11  1  0  0  0
 10 12  1  0  0  0
 17 18  1  0  0  0
M  END
> <minimizedAffinity>
-5.77230

$$$$
2NN1_M28_A_311


 18 18  0  0  0  0  0  0  0  0999 V2000
  -19.5490    2.3320  -15.5927 C   0  0  0  0  0  0  0  0  0  0  0  0
  -18.1200    2.3083  -15.7508 C   0  0  0  0  0  0  0  0  0  0  0  0
  -17.5635    1.7437  -16.9096 C   0  0  0  0  0  0  0  0  0  0  0  0
  -18.4038    1.2033  -17.9115 C   0  0  0  0  0  0  0  0  0  0  0  0
  -19.8087    1.2647  -17.7109 C   0  0  0  0  0  0  0  0  0  0  0  0
  -20.3930    1.8133  -16.5852 C   0  0  0  0  0  0  0  0  0  0  0  0
  -20.2947    3.0175  -14.1748 S   0  0  0  0  0  0  0  0  0  0  0  0
  -21.7116    2.8902  -14.3953 O   0  0  0  0  0  0  0  0  0  0  0  0
  -19.7688    4.3685  -14.0496 O   0  0  0  0  0  0  0  0  0  0  0  0
  -19.7913    2.1208  -12.9571 N   0  0  0  0  0  0  0  0  0  0  0  0
  -20.1646    1.1764  -13.0532 H   0  0  0  0  0  0  0  0  0  0  0  0
  -20.1153    2.5268  -12.0793 H   0  0  0  0  0  0  0  0  0  0  0  0
  -17.8675    0.5940  -19.1478 C   0  0  0  0  0  0  0  0  0  0  0  0
  -16.7089   -0.3045  -18.6956 C   0  0  0  0  0  0  0  0  0  0  0  0
  -16.4745   -1.6873  -19.2384 C   0  0  0  0  0  0  0  0  0  0  0  0
  -16.8761   -2.6848  -18.6035 O   0  0  0  0  0  0  0  0  0  0  0  0
  -15.8435   -1.8414  -20.3149 O   0  0  0  0  0  0  0  0  0  0  0  0
  -15.5417   -1.0937  -20.7921 H   0  0  0  0  0  0  0  0  0  0  0  0
  1  7  1  0  0  0
  1  2  2  0  0  0
  1  6  1  0  0  0
  2  3  1  0  0  0
  3  4  2  0  0  0
  4  5  1  0  0  0
  4 13  1  0  0  0
  5  6  2  0  0  0
  7  8  2  0  0  0
  7  9  2  0  0  0
  7 10  1  0  0  0
 13 14  1  0  0  0
 14 15  1  0  0  0
 15 16  2  0  0  0
 15 17  1  0  0  0
 10 11  1  0  0  0
 10 12  1  0  0  0
 17 18  1  0  0  0
M  END
> <minimizedAffinity>
-5.31884

$$$$
2NN1_M28_A_311


 18 18  0  0  0  0  0  0  0  0999 V2000
  -19.6414    1.9636  -17.6704 C   0  0  0  0  0  0  0  0  0  0  0  0
  -19.3224    2.1300  -16.2783 C   0  0  0  0  0  0  0  0  0  0  0  0
  -20.3618    2.2287  -15.3396 C   0  0  0  0  0  0  0  0  0  0  0  0
  -21.7105    2.1649  -15.7625 C   0  0  0  0  0  0  0  0  0  0  0  0
  -21.9694    1.9862  -17.1477 C   0  0  0  0  0  0  0  0  0  0  0  0
  -20.9737    1.8838  -18.1005 C   0  0  0  0  0  0  0  0  0  0  0  0
  -18.3929    1.8380  -18.8796 S   0  0  0  0  0  0  0  0  0  0  0  0
  -17.5659    3.0009  -18.6898 O   0  0  0  0  0  0  0  0  0  0  0  0
  -19.0749    1.7196  -20.1597 O   0  0  0  0  0  0  0  0  0  0  0  0
  -17.6172    0.4860  -18.5474 N   0  0  0  0  0  0  0  0  0  0  0  0
  -17.1426    0.5782  -17.6492 H   0  0  0  0  0  0  0  0  0  0  0  0
  -16.9297    0.3002  -19.2776 H   0  0  0  0  0  0  0  0  0  0  0  0
  -22.8410    2.2679  -14.8145 C   0  0  0  0  0  0  0  0  0  0  0  0
  -22.5341    1.2634  -13.6960 C   0  0  0  0  0  0  0  0  0  0  0  0
  -22.9872   -0.1703  -13.7251 C   0  0  0  0  0  0  0  0  0  0  0  0
  -23.2126   -0.7330  -14.8168 O   0  0  0  0  0  0  0  0  0  0  0  0
  -23.1727   -0.7928  -12.6486 O   0  0  0  0  0  0  0  0  0  0  0  0
  -23.0038   -0.3716  -11.8288 H   0  0  0  0  0  0  0  0  0  0  0  0
  1  7  1  0  0  0
  1  2  2  0  0  0
  1  6  1  0  0  0
  2  3  1  0  0  0
  3  4  2  0  0  0
  4  5  1  0  0  0
  4 13  1  0  0  0
  5  6  2  0  0  0
  7  8  2  0  0  0
  7  9  2  0  0  0
  7 10  1  0  0  0
 13 14  1  0  0  0
 14 15  1  0  0  0
 15 16  2  0  0  0
 15 17  1  0  0  0
 10 11  1  0  0  0
 10 12  1  0  0  0
 17 18  1  0  0  0
M  END
> <minimizedAffinity>
-5.27947

$$$$
2NN1_M28_A_311


 18 18  0  0  0  0  0  0  0  0999 V2000
  -19.6717    1.4484  -17.6485 C   0  0  0  0  0  0  0  0  0  0  0  0
  -20.9687    2.0338  -17.8550 C   0  0  0  0  0  0  0  0  0  0  0  0
  -21.9881    1.7995  -16.9184 C   0  0  0  0  0  0  0  0  0  0  0  0
  -21.7388    0.9938  -15.7824 C   0  0  0  0  0  0  0  0  0  0  0  0
  -20.4362    0.4511  -15.6202 C   0  0  0  0  0  0  0  0  0  0  0  0
  -19.4077    0.6604  -16.5191 C   0  0  0  0  0  0  0  0  0  0  0  0
  -18.3700    1.7030  -18.7786 S   0  0  0  0  0  0  0  0  0  0  0  0
  -19.0066    1.8394  -20.0625 O   0  0  0  0  0  0  0  0  0  0  0  0
  -17.4602    0.5793  -18.6133 O   0  0  0  0  0  0  0  0  0  0  0  0
  -17.6618    3.0519  -18.3107 N   0  0  0  0  0  0  0  0  0  0  0  0
  -18.3063    3.8334  -18.4301 H   0  0  0  0  0  0  0  0  0  0  0  0
  -16.8267    3.2108  -18.8745 H   0  0  0  0  0  0  0  0  0  0  0  0
  -22.7793    0.7134  -14.7694 C   0  0  0  0  0  0  0  0  0  0  0  0
  -22.1971   -0.3886  -13.8746 C   0  0  0  0  0  0  0  0  0  0  0  0
  -22.2634   -0.3549  -12.3725 C   0  0  0  0  0  0  0  0  0  0  0  0
  -23.0106    0.4640  -11.7976 O   0  0  0  0  0  0  0  0  0  0  0  0
  -21.5405   -1.1279  -11.6940 O   0  0  0  0  0  0  0  0  0  0  0  0
  -20.9794   -1.7428  -12.1242 H   0  0  0  0  0  0  0  0  0  0  0  0
  1  7  1  0  0  0
  1  2  2  0  0  0
  1  6  1  0  0  0
  2  3  1  0  0  0
  3  4  2  0  0  0
  4  5  1  0  0  0
  4 13  1  0  0  0
  5  6  2  0  0  0
  7  8  2  0  0  0
  7  9  2  0  0  0
  7 10  1  0  0  0
 13 14  1  0  0  0
 14 15  1  0  0  0
 15 16  2  0  0  0
 15 17  1  0  0  0
 10 11  1  0  0  0
 10 12  1  0  0  0
 17 18  1  0  0  0
M  END
> <minimizedAffinity>
-5.20270

$$$$
