5A81_78J_A_2111


 30 33  0  0  0  0  0  0  0  0999 V2000
  -28.3977   44.1988   13.4620 N   0  0  0  0  0  0  0  0  0  0  0  0
  -27.7611   43.5680   13.8695 H   0  0  0  0  0  0  0  0  0  0  0  0
  -22.7396   44.3617   10.1941 C   0  0  0  0  0  0  0  0  0  0  0  0
  -24.1099   44.5436   10.7930 C   0  0  0  0  0  0  0  0  0  0  0  0
  -24.8784   45.5468   10.3408 C   0  0  0  0  0  0  0  0  0  0  0  0
  -26.1902   45.7491   10.8948 C   0  0  0  0  0  0  0  0  0  0  0  0
  -27.0576   46.7670   10.4963 C   0  0  0  0  0  0  0  0  0  0  0  0
  -28.2920   46.8469   11.1050 C   0  0  0  0  0  0  0  0  0  0  0  0
  -28.7155   46.0074   12.0666 N   0  0  0  0  0  0  0  0  0  0  0  0
  -27.9184   45.0024   12.4879 C   0  0  0  0  0  0  0  0  0  0  0  0
  -26.6317   44.8753   11.8952 C   0  0  0  0  0  0  0  0  0  0  0  0
  -25.7902   43.8594   12.3157 N   0  0  0  0  0  0  0  0  0  0  0  0
  -24.5454   43.6282   11.8387 C   0  0  0  0  0  0  0  0  0  0  0  0
  -23.8765   42.6946   12.2788 O   0  0  0  0  0  0  0  0  0  0  0  0
  -26.1247   43.2566   13.0185 H   0  0  0  0  0  0  0  0  0  0  0  0
  -29.7616   44.1726   13.9692 C   0  0  0  0  0  0  0  0  0  0  0  0
  -29.7635   44.1153   15.4944 C   0  0  0  0  0  0  0  0  0  0  0  0
  -31.1835   44.0406   16.0135 C   0  0  0  0  0  0  0  0  0  0  0  0
  -31.8491   42.8462   15.4851 N   0  0  0  0  0  0  0  0  0  0  0  0
  -31.9343   42.9106   14.0268 C   0  0  0  0  0  0  0  0  0  0  0  0
  -30.5454   42.9932   13.4121 C   0  0  0  0  0  0  0  0  0  0  0  0
  -32.7902   42.7865   15.8740 H   0  0  0  0  0  0  0  0  0  0  0  0
  -30.6612   43.1565   11.9955 O   0  0  0  0  0  0  0  0  0  0  0  0
  -30.5115   41.9593   11.2276 C   0  0  0  0  0  0  0  0  0  0  0  0
  -29.7943   42.2593    9.9352 C   0  0  0  0  0  0  0  0  0  0  0  0
  -30.4724   41.5552    8.7668 C   0  0  0  0  0  0  0  0  0  0  0  0
  -29.8234   41.8881    7.4275 C   0  0  0  0  0  0  0  0  0  0  0  0
  -29.8033   43.3841    7.1858 C   0  0  0  0  0  0  0  0  0  0  0  0
  -29.1274   44.1122    8.3343 C   0  0  0  0  0  0  0  0  0  0  0  0
  -29.7783   43.7599    9.6702 C   0  0  0  0  0  0  0  0  0  0  0  0
  3  4  1  0  0  0
  4  5  2  0  0  0
  4 13  1  0  0  0
  5  6  1  0  0  0
  6  7  2  0  0  0
  6 11  1  0  0  0
  7  8  1  0  0  0
  8  9  2  0  0  0
  9 10  1  0  0  0
 10  1  1  0  0  0
 10 11  2  0  0  0
  1 16  1  0  0  0
 16 17  1  0  0  0
 16 21  1  0  0  0
 17 18  1  0  0  0
 18 19  1  0  0  0
 19 20  1  0  0  0
 20 21  1  0  0  0
 21 23  1  0  0  0
 23 24  1  0  0  0
 24 25  1  0  0  0
 25 26  1  0  0  0
 25 30  1  0  0  0
 26 27  1  0  0  0
 27 28  1  0  0  0
 28 29  1  0  0  0
 29 30  1  0  0  0
 11 12  1  0  0  0
 12 13  1  0  0  0
 13 14  2  0  0  0
  1  2  1  0  0  0
 19 22  1  0  0  0
 12 15  1  0  0  0
M  END
> <minimizedAffinity>
-7.73048

$$$$
5A81_78J_A_2111


 30 33  0  0  0  0  0  0  0  0999 V2000
  -26.0537   47.4591    9.9736 N   0  0  0  0  0  0  0  0  0  0  0  0
  -25.8471   48.3273   10.3894 H   0  0  0  0  0  0  0  0  0  0  0  0
  -21.6307   42.6572   10.2866 C   0  0  0  0  0  0  0  0  0  0  0  0
  -22.7745   43.6283   10.4205 C   0  0  0  0  0  0  0  0  0  0  0  0
  -23.7101   43.3911   11.3532 C   0  0  0  0  0  0  0  0  0  0  0  0
  -24.8167   44.2975   11.5036 C   0  0  0  0  0  0  0  0  0  0  0  0
  -25.8405   44.1316   12.4371 C   0  0  0  0  0  0  0  0  0  0  0  0
  -26.8417   45.0783   12.4815 C   0  0  0  0  0  0  0  0  0  0  0  0
  -26.8999   46.1541   11.6765 N   0  0  0  0  0  0  0  0  0  0  0  0
  -25.9338   46.3656   10.7574 C   0  0  0  0  0  0  0  0  0  0  0  0
  -24.8775   45.4176   10.6664 C   0  0  0  0  0  0  0  0  0  0  0  0
  -23.8789   45.6051    9.7259 N   0  0  0  0  0  0  0  0  0  0  0  0
  -22.8224   44.7822    9.5332 C   0  0  0  0  0  0  0  0  0  0  0  0
  -21.9856   45.0398    8.6694 O   0  0  0  0  0  0  0  0  0  0  0  0
  -23.9428   46.4017    9.1508 H   0  0  0  0  0  0  0  0  0  0  0  0
  -26.4579   47.4817    8.5757 C   0  0  0  0  0  0  0  0  0  0  0  0
  -25.5125   48.3598    7.7603 C   0  0  0  0  0  0  0  0  0  0  0  0
  -25.9656   48.4171    6.3171 C   0  0  0  0  0  0  0  0  0  0  0  0
  -27.3225   48.9662    6.2382 N   0  0  0  0  0  0  0  0  0  0  0  0
  -28.2665   48.1013    6.9443 C   0  0  0  0  0  0  0  0  0  0  0  0
  -27.8867   47.9792    8.4121 C   0  0  0  0  0  0  0  0  0  0  0  0
  -27.5997   49.0370    5.2591 H   0  0  0  0  0  0  0  0  0  0  0  0
  -28.7646   47.0504    9.0549 O   0  0  0  0  0  0  0  0  0  0  0  0
  -29.4240   46.1282    8.1830 C   0  0  0  0  0  0  0  0  0  0  0  0
  -29.1479   44.7121    8.6225 C   0  0  0  0  0  0  0  0  0  0  0  0
  -29.6178   44.4912   10.0548 C   0  0  0  0  0  0  0  0  0  0  0  0
  -29.4240   43.0511   10.5179 C   0  0  0  0  0  0  0  0  0  0  0  0
  -30.1247   42.0789    9.5902 C   0  0  0  0  0  0  0  0  0  0  0  0
  -29.6710   42.2733    8.1541 C   0  0  0  0  0  0  0  0  0  0  0  0
  -29.8582   43.7218    7.7076 C   0  0  0  0  0  0  0  0  0  0  0  0
  3  4  1  0  0  0
  4  5  2  0  0  0
  4 13  1  0  0  0
  5  6  1  0  0  0
  6  7  2  0  0  0
  6 11  1  0  0  0
  7  8  1  0  0  0
  8  9  2  0  0  0
  9 10  1  0  0  0
 10  1  1  0  0  0
 10 11  2  0  0  0
  1 16  1  0  0  0
 16 17  1  0  0  0
 16 21  1  0  0  0
 17 18  1  0  0  0
 18 19  1  0  0  0
 19 20  1  0  0  0
 20 21  1  0  0  0
 21 23  1  0  0  0
 23 24  1  0  0  0
 24 25  1  0  0  0
 25 26  1  0  0  0
 25 30  1  0  0  0
 26 27  1  0  0  0
 27 28  1  0  0  0
 28 29  1  0  0  0
 29 30  1  0  0  0
 11 12  1  0  0  0
 12 13  1  0  0  0
 13 14  2  0  0  0
  1  2  1  0  0  0
 19 22  1  0  0  0
 12 15  1  0  0  0
M  END
> <minimizedAffinity>
-7.66479

$$$$
5A81_78J_A_2111


 30 33  0  0  0  0  0  0  0  0999 V2000
  -27.4234   45.3167   12.8055 N   0  0  0  0  0  0  0  0  0  0  0  0
  -27.1040   45.6063   13.6906 H   0  0  0  0  0  0  0  0  0  0  0  0
  -21.8462   43.2126   10.1245 C   0  0  0  0  0  0  0  0  0  0  0  0
  -23.1277   43.8863   10.5408 C   0  0  0  0  0  0  0  0  0  0  0  0
  -23.5646   44.9318    9.8212 C   0  0  0  0  0  0  0  0  0  0  0  0
  -24.7828   45.5988   10.1950 C   0  0  0  0  0  0  0  0  0  0  0  0
  -25.3121   46.6966    9.5154 C   0  0  0  0  0  0  0  0  0  0  0  0
  -26.4925   47.2405    9.9750 C   0  0  0  0  0  0  0  0  0  0  0  0
  -27.1685   46.7837   11.0442 N   0  0  0  0  0  0  0  0  0  0  0  0
  -26.7037   45.7220   11.7368 C   0  0  0  0  0  0  0  0  0  0  0  0
  -25.4870   45.1235   11.3074 C   0  0  0  0  0  0  0  0  0  0  0  0
  -24.9827   44.0394   12.0056 N   0  0  0  0  0  0  0  0  0  0  0  0
  -23.8394   43.3806   11.7064 C   0  0  0  0  0  0  0  0  0  0  0  0
  -23.4780   42.4245   12.3905 O   0  0  0  0  0  0  0  0  0  0  0  0
  -25.4976   43.7224   12.7825 H   0  0  0  0  0  0  0  0  0  0  0  0
  -28.6240   44.4946   12.7790 C   0  0  0  0  0  0  0  0  0  0  0  0
  -28.7900   43.8354   11.4124 C   0  0  0  0  0  0  0  0  0  0  0  0
  -30.0649   43.0199   11.3762 C   0  0  0  0  0  0  0  0  0  0  0  0
  -31.2205   43.8828   11.6392 N   0  0  0  0  0  0  0  0  0  0  0  0
  -31.1294   44.4668   12.9765 C   0  0  0  0  0  0  0  0  0  0  0  0
  -29.8680   45.3063   13.1097 C   0  0  0  0  0  0  0  0  0  0  0  0
  -32.0747   43.3295   11.5720 H   0  0  0  0  0  0  0  0  0  0  0  0
  -29.7528   45.7817   14.4541 O   0  0  0  0  0  0  0  0  0  0  0  0
  -30.5355   45.0764   15.4214 C   0  0  0  0  0  0  0  0  0  0  0  0
  -29.6572   44.1447   16.2185 C   0  0  0  0  0  0  0  0  0  0  0  0
  -29.8992   44.3224   17.7120 C   0  0  0  0  0  0  0  0  0  0  0  0
  -29.0837   43.3485   18.5561 C   0  0  0  0  0  0  0  0  0  0  0  0
  -29.3608   41.9132   18.1566 C   0  0  0  0  0  0  0  0  0  0  0  0
  -29.1225   41.7055   16.6713 C   0  0  0  0  0  0  0  0  0  0  0  0
  -29.9346   42.6953   15.8386 C   0  0  0  0  0  0  0  0  0  0  0  0
  3  4  1  0  0  0
  4  5  2  0  0  0
  4 13  1  0  0  0
  5  6  1  0  0  0
  6  7  2  0  0  0
  6 11  1  0  0  0
  7  8  1  0  0  0
  8  9  2  0  0  0
  9 10  1  0  0  0
 10  1  1  0  0  0
 10 11  2  0  0  0
  1 16  1  0  0  0
 16 17  1  0  0  0
 16 21  1  0  0  0
 17 18  1  0  0  0
 18 19  1  0  0  0
 19 20  1  0  0  0
 20 21  1  0  0  0
 21 23  1  0  0  0
 23 24  1  0  0  0
 24 25  1  0  0  0
 25 26  1  0  0  0
 25 30  1  0  0  0
 26 27  1  0  0  0
 27 28  1  0  0  0
 28 29  1  0  0  0
 29 30  1  0  0  0
 11 12  1  0  0  0
 12 13  1  0  0  0
 13 14  2  0  0  0
  1  2  1  0  0  0
 19 22  1  0  0  0
 12 15  1  0  0  0
M  END
> <minimizedAffinity>
-6.97945

$$$$
5A81_78J_A_2111


 30 33  0  0  0  0  0  0  0  0999 V2000
  -28.8279   43.9857   13.1880 N   0  0  0  0  0  0  0  0  0  0  0  0
  -28.1527   43.2792   13.3072 H   0  0  0  0  0  0  0  0  0  0  0  0
  -29.9849   41.9646   19.2951 C   0  0  0  0  0  0  0  0  0  0  0  0
  -29.7966   42.6780   17.9817 C   0  0  0  0  0  0  0  0  0  0  0  0
  -30.0636   43.9921   17.9227 C   0  0  0  0  0  0  0  0  0  0  0  0
  -29.8973   44.7012   16.6825 C   0  0  0  0  0  0  0  0  0  0  0  0
  -30.1564   46.0628   16.5207 C   0  0  0  0  0  0  0  0  0  0  0  0
  -29.9504   46.6223   15.2777 C   0  0  0  0  0  0  0  0  0  0  0  0
  -29.5189   45.9376   14.2036 N   0  0  0  0  0  0  0  0  0  0  0  0
  -29.2496   44.6184   14.3043 C   0  0  0  0  0  0  0  0  0  0  0  0
  -29.4478   43.9892   15.5643 C   0  0  0  0  0  0  0  0  0  0  0  0
  -29.1886   42.6352   15.6929 N   0  0  0  0  0  0  0  0  0  0  0  0
  -29.3364   41.9158   16.8292 C   0  0  0  0  0  0  0  0  0  0  0  0
  -29.0763   40.7137   16.8399 O   0  0  0  0  0  0  0  0  0  0  0  0
  -28.8710   42.1573   14.8929 H   0  0  0  0  0  0  0  0  0  0  0  0
  -29.2724   44.2442   11.8265 C   0  0  0  0  0  0  0  0  0  0  0  0
  -30.0041   43.0288   11.2634 C   0  0  0  0  0  0  0  0  0  0  0  0
  -30.4222   43.2867    9.8315 C   0  0  0  0  0  0  0  0  0  0  0  0
  -29.2428   43.5648    9.0064 N   0  0  0  0  0  0  0  0  0  0  0  0
  -28.5646   44.7729    9.4736 C   0  0  0  0  0  0  0  0  0  0  0  0
  -28.1091   44.6081   10.9155 C   0  0  0  0  0  0  0  0  0  0  0  0
  -29.5342   43.6966    8.0379 H   0  0  0  0  0  0  0  0  0  0  0  0
  -27.5405   45.8368   11.3780 O   0  0  0  0  0  0  0  0  0  0  0  0
  -26.2839   46.1879   10.7922 C   0  0  0  0  0  0  0  0  0  0  0  0
  -25.4284   44.9571   10.6252 C   0  0  0  0  0  0  0  0  0  0  0  0
  -24.2865   45.2226    9.6524 C   0  0  0  0  0  0  0  0  0  0  0  0
  -23.3520   44.0262    9.5076 C   0  0  0  0  0  0  0  0  0  0  0  0
  -22.7953   43.6007   10.8514 C   0  0  0  0  0  0  0  0  0  0  0  0
  -23.9133   43.3240   11.8411 C   0  0  0  0  0  0  0  0  0  0  0  0
  -24.8487   44.5247   11.9666 C   0  0  0  0  0  0  0  0  0  0  0  0
  3  4  1  0  0  0
  4  5  2  0  0  0
  4 13  1  0  0  0
  5  6  1  0  0  0
  6  7  2  0  0  0
  6 11  1  0  0  0
  7  8  1  0  0  0
  8  9  2  0  0  0
  9 10  1  0  0  0
 10  1  1  0  0  0
 10 11  2  0  0  0
  1 16  1  0  0  0
 16 17  1  0  0  0
 16 21  1  0  0  0
 17 18  1  0  0  0
 18 19  1  0  0  0
 19 20  1  0  0  0
 20 21  1  0  0  0
 21 23  1  0  0  0
 23 24  1  0  0  0
 24 25  1  0  0  0
 25 26  1  0  0  0
 25 30  1  0  0  0
 26 27  1  0  0  0
 27 28  1  0  0  0
 28 29  1  0  0  0
 29 30  1  0  0  0
 11 12  1  0  0  0
 12 13  1  0  0  0
 13 14  2  0  0  0
  1  2  1  0  0  0
 19 22  1  0  0  0
 12 15  1  0  0  0
M  END
> <minimizedAffinity>
-6.81551

$$$$
5A81_78J_A_2111


 30 33  0  0  0  0  0  0  0  0999 V2000
  -29.9293   42.5156    9.8367 N   0  0  0  0  0  0  0  0  0  0  0  0
  -29.3585   41.7264    9.6935 H   0  0  0  0  0  0  0  0  0  0  0  0
  -25.6807   46.4107   12.9185 C   0  0  0  0  0  0  0  0  0  0  0  0
  -26.8040   45.5264   12.4436 C   0  0  0  0  0  0  0  0  0  0  0  0
  -27.8195   45.2740   13.2842 C   0  0  0  0  0  0  0  0  0  0  0  0
  -28.9053   44.4305   12.8619 C   0  0  0  0  0  0  0  0  0  0  0  0
  -29.9988   44.1046   13.6652 C   0  0  0  0  0  0  0  0  0  0  0  0
  -30.9761   43.2888   13.1360 C   0  0  0  0  0  0  0  0  0  0  0  0
  -30.9422   42.7792   11.8919 N   0  0  0  0  0  0  0  0  0  0  0  0
  -29.9093   43.0647   11.0706 C   0  0  0  0  0  0  0  0  0  0  0  0
  -28.8708   43.9002   11.5670 C   0  0  0  0  0  0  0  0  0  0  0  0
  -27.7949   44.2010   10.7490 N   0  0  0  0  0  0  0  0  0  0  0  0
  -26.7433   44.9785   11.0956 C   0  0  0  0  0  0  0  0  0  0  0  0
  -25.8356   45.1872   10.2923 O   0  0  0  0  0  0  0  0  0  0  0  0
  -27.7952   43.8182    9.8420 H   0  0  0  0  0  0  0  0  0  0  0  0
  -30.7107   42.9744    8.6979 C   0  0  0  0  0  0  0  0  0  0  0  0
  -31.4428   41.8045    8.0461 C   0  0  0  0  0  0  0  0  0  0  0  0
  -32.2156   42.2805    6.8345 C   0  0  0  0  0  0  0  0  0  0  0  0
  -31.3005   42.8806    5.8591 N   0  0  0  0  0  0  0  0  0  0  0  0
  -30.6425   44.0550    6.4298 C   0  0  0  0  0  0  0  0  0  0  0  0
  -29.8396   43.6726    7.6638 C   0  0  0  0  0  0  0  0  0  0  0  0
  -31.8276   43.1599    5.0318 H   0  0  0  0  0  0  0  0  0  0  0  0
  -29.2904   44.8524    8.2583 O   0  0  0  0  0  0  0  0  0  0  0  0
  -30.2384   45.8750    8.5764 C   0  0  0  0  0  0  0  0  0  0  0  0
  -29.5220   47.1594    8.9106 C   0  0  0  0  0  0  0  0  0  0  0  0
  -29.5180   47.3983   10.4152 C   0  0  0  0  0  0  0  0  0  0  0  0
  -28.7408   48.6509   10.8060 C   0  0  0  0  0  0  0  0  0  0  0  0
  -27.3171   48.5949   10.2897 C   0  0  0  0  0  0  0  0  0  0  0  0
  -27.2907   48.3625    8.7892 C   0  0  0  0  0  0  0  0  0  0  0  0
  -28.0832   47.1131    8.4105 C   0  0  0  0  0  0  0  0  0  0  0  0
  3  4  1  0  0  0
  4  5  2  0  0  0
  4 13  1  0  0  0
  5  6  1  0  0  0
  6  7  2  0  0  0
  6 11  1  0  0  0
  7  8  1  0  0  0
  8  9  2  0  0  0
  9 10  1  0  0  0
 10  1  1  0  0  0
 10 11  2  0  0  0
  1 16  1  0  0  0
 16 17  1  0  0  0
 16 21  1  0  0  0
 17 18  1  0  0  0
 18 19  1  0  0  0
 19 20  1  0  0  0
 20 21  1  0  0  0
 21 23  1  0  0  0
 23 24  1  0  0  0
 24 25  1  0  0  0
 25 26  1  0  0  0
 25 30  1  0  0  0
 26 27  1  0  0  0
 27 28  1  0  0  0
 28 29  1  0  0  0
 29 30  1  0  0  0
 11 12  1  0  0  0
 12 13  1  0  0  0
 13 14  2  0  0  0
  1  2  1  0  0  0
 19 22  1  0  0  0
 12 15  1  0  0  0
M  END
> <minimizedAffinity>
-6.57942

$$$$
5A81_78J_A_2111


 30 33  0  0  0  0  0  0  0  0999 V2000
  -28.8351   43.7705   12.8576 N   0  0  0  0  0  0  0  0  0  0  0  0
  -28.0411   43.2021   12.9830 H   0  0  0  0  0  0  0  0  0  0  0  0
  -29.9745   42.2716   19.1166 C   0  0  0  0  0  0  0  0  0  0  0  0
  -29.7850   42.8729   17.7485 C   0  0  0  0  0  0  0  0  0  0  0  0
  -30.0289   44.1826   17.5852 C   0  0  0  0  0  0  0  0  0  0  0  0
  -29.8608   44.7860   16.2904 C   0  0  0  0  0  0  0  0  0  0  0  0
  -30.0970   46.1346   16.0208 C   0  0  0  0  0  0  0  0  0  0  0  0
  -29.8919   46.5878   14.7351 C   0  0  0  0  0  0  0  0  0  0  0  0
  -29.4822   45.8107   13.7168 N   0  0  0  0  0  0  0  0  0  0  0  0
  -29.2356   44.4992   13.9221 C   0  0  0  0  0  0  0  0  0  0  0  0
  -29.4340   43.9777   15.2303 C   0  0  0  0  0  0  0  0  0  0  0  0
  -29.1979   42.6339   15.4663 N   0  0  0  0  0  0  0  0  0  0  0  0
  -29.3486   42.0116   16.6582 C   0  0  0  0  0  0  0  0  0  0  0  0
  -29.1100   40.8097   16.7643 O   0  0  0  0  0  0  0  0  0  0  0  0
  -28.8959   42.0871   14.7053 H   0  0  0  0  0  0  0  0  0  0  0  0
  -29.4605   43.7420   11.5438 C   0  0  0  0  0  0  0  0  0  0  0  0
  -30.0646   42.3674   11.2693 C   0  0  0  0  0  0  0  0  0  0  0  0
  -30.6717   42.3300    9.8831 C   0  0  0  0  0  0  0  0  0  0  0  0
  -29.6442   42.6150    8.8771 N   0  0  0  0  0  0  0  0  0  0  0  0
  -29.1023   43.9598    9.0657 C   0  0  0  0  0  0  0  0  0  0  0  0
  -28.4708   44.0947   10.4429 C   0  0  0  0  0  0  0  0  0  0  0  0
  -30.0571   42.5468    7.9469 H   0  0  0  0  0  0  0  0  0  0  0  0
  -28.0401   45.4449   10.6385 O   0  0  0  0  0  0  0  0  0  0  0  0
  -26.6261   45.6248   10.7558 C   0  0  0  0  0  0  0  0  0  0  0  0
  -26.2698   47.0757   10.5488 C   0  0  0  0  0  0  0  0  0  0  0  0
  -25.5652   47.2719    9.2124 C   0  0  0  0  0  0  0  0  0  0  0  0
  -25.2498   48.7366    8.9276 C   0  0  0  0  0  0  0  0  0  0  0  0
  -26.5036   49.5863    8.9784 C   0  0  0  0  0  0  0  0  0  0  0  0
  -27.2247   49.4142   10.3037 C   0  0  0  0  0  0  0  0  0  0  0  0
  -27.5227   47.9424   10.5826 C   0  0  0  0  0  0  0  0  0  0  0  0
  3  4  1  0  0  0
  4  5  2  0  0  0
  4 13  1  0  0  0
  5  6  1  0  0  0
  6  7  2  0  0  0
  6 11  1  0  0  0
  7  8  1  0  0  0
  8  9  2  0  0  0
  9 10  1  0  0  0
 10  1  1  0  0  0
 10 11  2  0  0  0
  1 16  1  0  0  0
 16 17  1  0  0  0
 16 21  1  0  0  0
 17 18  1  0  0  0
 18 19  1  0  0  0
 19 20  1  0  0  0
 20 21  1  0  0  0
 21 23  1  0  0  0
 23 24  1  0  0  0
 24 25  1  0  0  0
 25 26  1  0  0  0
 25 30  1  0  0  0
 26 27  1  0  0  0
 27 28  1  0  0  0
 28 29  1  0  0  0
 29 30  1  0  0  0
 11 12  1  0  0  0
 12 13  1  0  0  0
 13 14  2  0  0  0
  1  2  1  0  0  0
 19 22  1  0  0  0
 12 15  1  0  0  0
M  END
> <minimizedAffinity>
-6.55889

$$$$
5A81_78J_A_2111


 30 33  0  0  0  0  0  0  0  0999 V2000
  -28.5580   44.0442    9.7898 N   0  0  0  0  0  0  0  0  0  0  0  0
  -27.8459   43.5796    9.2934 H   0  0  0  0  0  0  0  0  0  0  0  0
  -32.7659   42.8833    4.9251 C   0  0  0  0  0  0  0  0  0  0  0  0
  -31.9908   43.0394    6.2074 C   0  0  0  0  0  0  0  0  0  0  0  0
  -32.5515   42.6141    7.3504 C   0  0  0  0  0  0  0  0  0  0  0  0
  -31.8387   42.7523    8.5920 C   0  0  0  0  0  0  0  0  0  0  0  0
  -32.3407   42.3483    9.8297 C   0  0  0  0  0  0  0  0  0  0  0  0
  -31.5514   42.5329   10.9448 C   0  0  0  0  0  0  0  0  0  0  0  0
  -30.3252   43.0846   10.9191 N   0  0  0  0  0  0  0  0  0  0  0  0
  -29.7892   43.4903    9.7482 C   0  0  0  0  0  0  0  0  0  0  0  0
  -30.5622   43.3261    8.5657 C   0  0  0  0  0  0  0  0  0  0  0  0
  -30.0404   43.7425    7.3527 N   0  0  0  0  0  0  0  0  0  0  0  0
  -30.6682   43.6469    6.1579 C   0  0  0  0  0  0  0  0  0  0  0  0
  -30.1157   44.0457    5.1340 O   0  0  0  0  0  0  0  0  0  0  0  0
  -29.1400   44.1404    7.3602 H   0  0  0  0  0  0  0  0  0  0  0  0
  -28.1791   45.2594   10.4955 C   0  0  0  0  0  0  0  0  0  0  0  0
  -28.9481   46.4579    9.9463 C   0  0  0  0  0  0  0  0  0  0  0  0
  -28.5153   47.7253   10.6519 C   0  0  0  0  0  0  0  0  0  0  0  0
  -27.0788   47.9432   10.4566 N   0  0  0  0  0  0  0  0  0  0  0  0
  -26.3103   46.8474   11.0452 C   0  0  0  0  0  0  0  0  0  0  0  0
  -26.6836   45.5227   10.3974 C   0  0  0  0  0  0  0  0  0  0  0  0
  -26.8086   48.8200   10.9022 H   0  0  0  0  0  0  0  0  0  0  0  0
  -25.9932   44.4585   11.0590 O   0  0  0  0  0  0  0  0  0  0  0  0
  -24.6590   44.7610   11.4759 C   0  0  0  0  0  0  0  0  0  0  0  0
  -23.6663   44.1504   10.5185 C   0  0  0  0  0  0  0  0  0  0  0  0
  -22.8506   45.2339    9.8245 C   0  0  0  0  0  0  0  0  0  0  0  0
  -21.7831   44.6593    8.8993 C   0  0  0  0  0  0  0  0  0  0  0  0
  -20.8595   43.7187    9.6469 C   0  0  0  0  0  0  0  0  0  0  0  0
  -21.6465   42.6237   10.3452 C   0  0  0  0  0  0  0  0  0  0  0  0
  -22.7201   43.2123   11.2581 C   0  0  0  0  0  0  0  0  0  0  0  0
  3  4  1  0  0  0
  4  5  2  0  0  0
  4 13  1  0  0  0
  5  6  1  0  0  0
  6  7  2  0  0  0
  6 11  1  0  0  0
  7  8  1  0  0  0
  8  9  2  0  0  0
  9 10  1  0  0  0
 10  1  1  0  0  0
 10 11  2  0  0  0
  1 16  1  0  0  0
 16 17  1  0  0  0
 16 21  1  0  0  0
 17 18  1  0  0  0
 18 19  1  0  0  0
 19 20  1  0  0  0
 20 21  1  0  0  0
 21 23  1  0  0  0
 23 24  1  0  0  0
 24 25  1  0  0  0
 25 26  1  0  0  0
 25 30  1  0  0  0
 26 27  1  0  0  0
 27 28  1  0  0  0
 28 29  1  0  0  0
 29 30  1  0  0  0
 11 12  1  0  0  0
 12 13  1  0  0  0
 13 14  2  0  0  0
  1  2  1  0  0  0
 19 22  1  0  0  0
 12 15  1  0  0  0
M  END
> <minimizedAffinity>
-6.51386

$$$$
5A81_78J_A_2111


 30 33  0  0  0  0  0  0  0  0999 V2000
  -29.3657   44.5973   12.9599 N   0  0  0  0  0  0  0  0  0  0  0  0
  -29.9915   43.9185   12.6181 H   0  0  0  0  0  0  0  0  0  0  0  0
  -29.5987   42.1318   19.0086 C   0  0  0  0  0  0  0  0  0  0  0  0
  -29.6183   42.9372   17.7357 C   0  0  0  0  0  0  0  0  0  0  0  0
  -29.9373   44.2391   17.8065 C   0  0  0  0  0  0  0  0  0  0  0  0
  -29.9685   45.0345   16.6085 C   0  0  0  0  0  0  0  0  0  0  0  0
  -30.2955   46.3907   16.5801 C   0  0  0  0  0  0  0  0  0  0  0  0
  -30.2825   47.0389   15.3634 C   0  0  0  0  0  0  0  0  0  0  0  0
  -29.9790   46.4459   14.1951 N   0  0  0  0  0  0  0  0  0  0  0  0
  -29.6518   45.1363   14.1649 C   0  0  0  0  0  0  0  0  0  0  0  0
  -29.6523   44.4179   15.3924 C   0  0  0  0  0  0  0  0  0  0  0  0
  -29.3300   43.0714   15.3886 N   0  0  0  0  0  0  0  0  0  0  0  0
  -29.2945   42.2733   16.4806 C   0  0  0  0  0  0  0  0  0  0  0  0
  -28.9930   41.0860   16.3709 O   0  0  0  0  0  0  0  0  0  0  0  0
  -29.1089   42.6615   14.5212 H   0  0  0  0  0  0  0  0  0  0  0  0
  -28.2244   44.9201   12.1165 C   0  0  0  0  0  0  0  0  0  0  0  0
  -27.0099   45.2704   12.9720 C   0  0  0  0  0  0  0  0  0  0  0  0
  -25.8403   45.6507   12.0894 C   0  0  0  0  0  0  0  0  0  0  0  0
  -26.1935   46.8050   11.2576 N   0  0  0  0  0  0  0  0  0  0  0  0
  -27.3052   46.4734   10.3676 C   0  0  0  0  0  0  0  0  0  0  0  0
  -28.5329   46.0715   11.1706 C   0  0  0  0  0  0  0  0  0  0  0  0
  -25.3847   47.0756   10.6980 H   0  0  0  0  0  0  0  0  0  0  0  0
  -29.5705   45.6566   10.2773 O   0  0  0  0  0  0  0  0  0  0  0  0
  -29.1381   45.2973    8.9623 C   0  0  0  0  0  0  0  0  0  0  0  0
  -29.1791   43.7990    8.7949 C   0  0  0  0  0  0  0  0  0  0  0  0
  -30.3963   43.2116    9.4979 C   0  0  0  0  0  0  0  0  0  0  0  0
  -30.5183   41.7050    9.2943 C   0  0  0  0  0  0  0  0  0  0  0  0
  -30.5549   41.3531    7.8207 C   0  0  0  0  0  0  0  0  0  0  0  0
  -29.3487   41.9224    7.0948 C   0  0  0  0  0  0  0  0  0  0  0  0
  -29.2310   43.4287    7.3176 C   0  0  0  0  0  0  0  0  0  0  0  0
  3  4  1  0  0  0
  4  5  2  0  0  0
  4 13  1  0  0  0
  5  6  1  0  0  0
  6  7  2  0  0  0
  6 11  1  0  0  0
  7  8  1  0  0  0
  8  9  2  0  0  0
  9 10  1  0  0  0
 10  1  1  0  0  0
 10 11  2  0  0  0
  1 16  1  0  0  0
 16 17  1  0  0  0
 16 21  1  0  0  0
 17 18  1  0  0  0
 18 19  1  0  0  0
 19 20  1  0  0  0
 20 21  1  0  0  0
 21 23  1  0  0  0
 23 24  1  0  0  0
 24 25  1  0  0  0
 25 26  1  0  0  0
 25 30  1  0  0  0
 26 27  1  0  0  0
 27 28  1  0  0  0
 28 29  1  0  0  0
 29 30  1  0  0  0
 11 12  1  0  0  0
 12 13  1  0  0  0
 13 14  2  0  0  0
  1  2  1  0  0  0
 19 22  1  0  0  0
 12 15  1  0  0  0
M  END
> <minimizedAffinity>
-6.40875

$$$$
5A81_78J_A_2111


 30 33  0  0  0  0  0  0  0  0999 V2000
  -29.1859   45.9666   12.2578 N   0  0  0  0  0  0  0  0  0  0  0  0
  -29.6643   46.7160   11.8350 H   0  0  0  0  0  0  0  0  0  0  0  0
  -25.1999   49.1201    8.1484 C   0  0  0  0  0  0  0  0  0  0  0  0
  -25.9106   48.2130    9.1187 C   0  0  0  0  0  0  0  0  0  0  0  0
  -25.2683   47.1212    9.5626 C   0  0  0  0  0  0  0  0  0  0  0  0
  -25.9210   46.2332   10.4869 C   0  0  0  0  0  0  0  0  0  0  0  0
  -25.3392   45.0721   10.9972 C   0  0  0  0  0  0  0  0  0  0  0  0
  -26.0724   44.3102   11.8818 C   0  0  0  0  0  0  0  0  0  0  0  0
  -27.3202   44.6109   12.2833 N   0  0  0  0  0  0  0  0  0  0  0  0
  -27.9300   45.7245   11.8237 C   0  0  0  0  0  0  0  0  0  0  0  0
  -27.2195   46.5460   10.9055 C   0  0  0  0  0  0  0  0  0  0  0  0
  -27.8251   47.6887   10.4109 N   0  0  0  0  0  0  0  0  0  0  0  0
  -27.2644   48.5531    9.5340 C   0  0  0  0  0  0  0  0  0  0  0  0
  -27.8874   49.5440    9.1563 O   0  0  0  0  0  0  0  0  0  0  0  0
  -28.7374   47.8883   10.7225 H   0  0  0  0  0  0  0  0  0  0  0  0
  -29.9025   45.2299   13.2883 C   0  0  0  0  0  0  0  0  0  0  0  0
  -29.2284   45.4165   14.6450 C   0  0  0  0  0  0  0  0  0  0  0  0
  -29.9505   44.6103   15.7033 C   0  0  0  0  0  0  0  0  0  0  0  0
  -29.9351   43.1880   15.3486 N   0  0  0  0  0  0  0  0  0  0  0  0
  -30.6454   42.9667   14.0899 C   0  0  0  0  0  0  0  0  0  0  0  0
  -29.9898   43.7465   12.9604 C   0  0  0  0  0  0  0  0  0  0  0  0
  -30.3887   42.6524   16.0887 H   0  0  0  0  0  0  0  0  0  0  0  0
  -30.7616   43.5928   11.7657 O   0  0  0  0  0  0  0  0  0  0  0  0
  -30.4336   42.4518   10.9682 C   0  0  0  0  0  0  0  0  0  0  0  0
  -29.6992   42.8837    9.7236 C   0  0  0  0  0  0  0  0  0  0  0  0
  -29.9618   41.9132    8.5790 C   0  0  0  0  0  0  0  0  0  0  0  0
  -29.2962   42.3499    7.2782 C   0  0  0  0  0  0  0  0  0  0  0  0
  -29.7340   43.7454    6.8811 C   0  0  0  0  0  0  0  0  0  0  0  0
  -29.4787   44.7362    8.0032 C   0  0  0  0  0  0  0  0  0  0  0  0
  -30.1394   44.2805    9.3025 C   0  0  0  0  0  0  0  0  0  0  0  0
  3  4  1  0  0  0
  4  5  2  0  0  0
  4 13  1  0  0  0
  5  6  1  0  0  0
  6  7  2  0  0  0
  6 11  1  0  0  0
  7  8  1  0  0  0
  8  9  2  0  0  0
  9 10  1  0  0  0
 10  1  1  0  0  0
 10 11  2  0  0  0
  1 16  1  0  0  0
 16 17  1  0  0  0
 16 21  1  0  0  0
 17 18  1  0  0  0
 18 19  1  0  0  0
 19 20  1  0  0  0
 20 21  1  0  0  0
 21 23  1  0  0  0
 23 24  1  0  0  0
 24 25  1  0  0  0
 25 26  1  0  0  0
 25 30  1  0  0  0
 26 27  1  0  0  0
 27 28  1  0  0  0
 28 29  1  0  0  0
 29 30  1  0  0  0
 11 12  1  0  0  0
 12 13  1  0  0  0
 13 14  2  0  0  0
  1  2  1  0  0  0
 19 22  1  0  0  0
 12 15  1  0  0  0
M  END
> <minimizedAffinity>
-6.32318

$$$$
5A81_78J_A_2111


 30 33  0  0  0  0  0  0  0  0999 V2000
  -32.1465   45.5834   12.0949 N   0  0  0  0  0  0  0  0  0  0  0  0
  -33.0699   45.6586   11.7620 H   0  0  0  0  0  0  0  0  0  0  0  0
  -29.1207   42.5535    7.1568 C   0  0  0  0  0  0  0  0  0  0  0  0
  -29.7621   43.0216    8.4370 C   0  0  0  0  0  0  0  0  0  0  0  0
  -29.7462   42.2006    9.4987 C   0  0  0  0  0  0  0  0  0  0  0  0
  -30.3533   42.6168   10.7344 C   0  0  0  0  0  0  0  0  0  0  0  0
  -30.3939   41.8321   11.8876 C   0  0  0  0  0  0  0  0  0  0  0  0
  -31.0029   42.3531   13.0093 C   0  0  0  0  0  0  0  0  0  0  0  0
  -31.5683   43.5721   13.0642 N   0  0  0  0  0  0  0  0  0  0  0  0
  -31.5548   44.3748   11.9786 C   0  0  0  0  0  0  0  0  0  0  0  0
  -30.9415   43.8856   10.7922 C   0  0  0  0  0  0  0  0  0  0  0  0
  -30.9223   44.6844    9.6615 N   0  0  0  0  0  0  0  0  0  0  0  0
  -30.3758   44.3419    8.4721 C   0  0  0  0  0  0  0  0  0  0  0  0
  -30.4091   45.1269    7.5258 O   0  0  0  0  0  0  0  0  0  0  0  0
  -31.3401   45.5733    9.7283 H   0  0  0  0  0  0  0  0  0  0  0  0
  -31.5549   46.7855   12.6633 C   0  0  0  0  0  0  0  0  0  0  0  0
  -32.4673   47.3742   13.7359 C   0  0  0  0  0  0  0  0  0  0  0  0
  -31.8688   48.6497   14.2896 C   0  0  0  0  0  0  0  0  0  0  0  0
  -31.6934   49.6302   13.2140 N   0  0  0  0  0  0  0  0  0  0  0  0
  -30.7591   49.1257   12.2088 C   0  0  0  0  0  0  0  0  0  0  0  0
  -31.2778   47.8339   11.5958 C   0  0  0  0  0  0  0  0  0  0  0  0
  -31.3277   50.4976   13.6069 H   0  0  0  0  0  0  0  0  0  0  0  0
  -30.3004   47.3105   10.6917 O   0  0  0  0  0  0  0  0  0  0  0  0
  -28.9522   47.7129   10.9484 C   0  0  0  0  0  0  0  0  0  0  0  0
  -28.0545   46.5028   11.0165 C   0  0  0  0  0  0  0  0  0  0  0  0
  -26.6011   46.8966   10.7850 C   0  0  0  0  0  0  0  0  0  0  0  0
  -25.6473   45.7139   10.9164 C   0  0  0  0  0  0  0  0  0  0  0  0
  -25.7902   45.0429   12.2677 C   0  0  0  0  0  0  0  0  0  0  0  0
  -27.2303   44.6345   12.5234 C   0  0  0  0  0  0  0  0  0  0  0  0
  -28.1758   45.8248   12.3758 C   0  0  0  0  0  0  0  0  0  0  0  0
  3  4  1  0  0  0
  4  5  2  0  0  0
  4 13  1  0  0  0
  5  6  1  0  0  0
  6  7  2  0  0  0
  6 11  1  0  0  0
  7  8  1  0  0  0
  8  9  2  0  0  0
  9 10  1  0  0  0
 10  1  1  0  0  0
 10 11  2  0  0  0
  1 16  1  0  0  0
 16 17  1  0  0  0
 16 21  1  0  0  0
 17 18  1  0  0  0
 18 19  1  0  0  0
 19 20  1  0  0  0
 20 21  1  0  0  0
 21 23  1  0  0  0
 23 24  1  0  0  0
 24 25  1  0  0  0
 25 26  1  0  0  0
 25 30  1  0  0  0
 26 27  1  0  0  0
 27 28  1  0  0  0
 28 29  1  0  0  0
 29 30  1  0  0  0
 11 12  1  0  0  0
 12 13  1  0  0  0
 13 14  2  0  0  0
  1  2  1  0  0  0
 19 22  1  0  0  0
 12 15  1  0  0  0
M  END
> <minimizedAffinity>
-6.22226

$$$$
