5T8O_76Z_A_705


 26 28  0  0  0  0  0  0  0  0999 V2000
   42.9440   16.7656   -1.0142 C   0  0  0  0  0  0  0  0  0  0  0  0
   42.6116   17.9342    1.0993 C   0  0  0  0  0  0  0  0  0  0  0  0
   42.9664   16.7776    1.7761 C   0  0  0  0  0  0  0  0  0  0  0  0
   42.9337   16.5908   -4.5770 C   0  0  0  0  0  0  0  0  0  0  0  0
   43.3035   15.6195    1.0836 C   0  0  0  0  0  0  0  0  0  0  0  0
   43.2982   15.6026   -0.3145 C   0  0  0  0  0  0  0  0  0  0  0  0
   44.4559   14.3842   -2.0740 C   0  0  0  0  0  0  0  0  0  0  0  0
   43.5449   14.5932   -3.2767 C   0  0  0  0  0  0  0  0  0  0  0  0
   42.5498   17.8890   -4.3093 C   0  0  0  0  0  0  0  0  0  0  0  0
   42.8828   16.8736   -2.4070 C   0  0  0  0  0  0  0  0  0  0  0  0
   42.5312   18.0289   -2.9909 N   0  0  0  0  0  0  0  0  0  0  0  0
   43.1341   15.9876   -3.3953 N   0  0  0  0  0  0  0  0  0  0  0  0
   43.6314   14.4144   -0.9196 O   0  0  0  0  0  0  0  0  0  0  0  0
   42.6107   17.9229   -0.2857 C   0  0  0  0  0  0  0  0  0  0  0  0
   42.0183   20.1983   -4.6778 N   0  0  0  0  0  0  0  0  0  0  0  0
   42.1049   18.7759   -6.4248 O   0  0  0  0  0  0  0  0  0  0  0  0
   42.2055   18.9933   -5.2288 C   0  0  0  0  0  0  0  0  0  0  0  0
   41.7870   20.9686   -5.2457 H   0  0  0  0  0  0  0  0  0  0  0  0
   42.1118   20.3146   -3.7047 H   0  0  0  0  0  0  0  0  0  0  0  0
   42.3145   19.0143    1.7470 C   0  0  0  0  0  0  0  0  0  0  0  0
   42.0676   20.0369    2.2999 C   0  0  0  0  0  0  0  0  0  0  0  0
   41.8334   21.3048    3.0227 C   0  0  0  0  0  0  0  0  0  0  0  0
   42.3312   21.2189    4.3582 O   0  0  0  0  0  0  0  0  0  0  0  0
   40.3445   21.5830    3.1098 C   0  0  0  0  0  0  0  0  0  0  0  0
   42.5650   22.4351    2.3145 C   0  0  0  0  0  0  0  0  0  0  0  0
   43.2845   21.0410    4.3372 H   0  0  0  0  0  0  0  0  0  0  0  0
 16 17  2  0  0  0
 17 15  1  0  0  0
 17  9  1  0  0  0
  4  9  2  0  0  0
  4 12  1  0  0  0
  9 11  1  0  0  0
 12  8  1  0  0  0
 12 10  1  0  0  0
  8  7  1  0  0  0
 11 10  2  0  0  0
 10  1  1  0  0  0
  7 13  1  0  0  0
  1 14  2  0  0  0
  1  6  1  0  0  0
 13  6  1  0  0  0
 14  2  1  0  0  0
  6  5  2  0  0  0
  2 20  1  0  0  0
  2  3  2  0  0  0
  5  3  1  0  0  0
 20 21  3  0  0  0
 25 22  1  0  0  0
 21 22  1  0  0  0
 22 24  1  0  0  0
 22 23  1  0  0  0
 15 18  1  0  0  0
 15 19  1  0  0  0
 23 26  1  0  0  0
M  END
> <minimizedAffinity>
-10.69539

$$$$
5T8O_76Z_A_705


 26 28  0  0  0  0  0  0  0  0999 V2000
   44.6240   14.0564   -1.6620 C   0  0  0  0  0  0  0  0  0  0  0  0
   43.9122   14.5577   -3.9390 C   0  0  0  0  0  0  0  0  0  0  0  0
   44.7643   13.5691   -4.4059 C   0  0  0  0  0  0  0  0  0  0  0  0
   44.5725   14.5842    1.8655 C   0  0  0  0  0  0  0  0  0  0  0  0
   45.5472   12.8274   -3.5276 C   0  0  0  0  0  0  0  0  0  0  0  0
   45.4833   13.0611   -2.1506 C   0  0  0  0  0  0  0  0  0  0  0  0
   45.8385   11.7711   -0.1183 C   0  0  0  0  0  0  0  0  0  0  0  0
   46.0527   12.8556    0.9296 C   0  0  0  0  0  0  0  0  0  0  0  0
   43.6684   15.5072    1.3806 C   0  0  0  0  0  0  0  0  0  0  0  0
   44.4815   14.3985   -0.3137 C   0  0  0  0  0  0  0  0  0  0  0  0
   43.6342   15.3681    0.0624 N   0  0  0  0  0  0  0  0  0  0  0  0
   45.0573   13.9147    0.8085 N   0  0  0  0  0  0  0  0  0  0  0  0
   46.2992   12.2931   -1.3547 O   0  0  0  0  0  0  0  0  0  0  0  0
   43.8419   14.7883   -2.5751 C   0  0  0  0  0  0  0  0  0  0  0  0
   42.9476   17.7735    1.6899 N   0  0  0  0  0  0  0  0  0  0  0  0
   42.1124   16.1428    3.0037 O   0  0  0  0  0  0  0  0  0  0  0  0
   42.8418   16.5023    2.0946 C   0  0  0  0  0  0  0  0  0  0  0  0
   42.4188   18.4764    2.1320 H   0  0  0  0  0  0  0  0  0  0  0  0
   43.5544   18.0057    0.9502 H   0  0  0  0  0  0  0  0  0  0  0  0
   43.1732   15.2344   -4.7579 C   0  0  0  0  0  0  0  0  0  0  0  0
   42.5306   15.9010   -5.5029 C   0  0  0  0  0  0  0  0  0  0  0  0
   41.6910   16.7587   -6.3655 C   0  0  0  0  0  0  0  0  0  0  0  0
   42.1184   16.6722   -7.7252 O   0  0  0  0  0  0  0  0  0  0  0  0
   41.8237   18.2087   -5.9390 C   0  0  0  0  0  0  0  0  0  0  0  0
   40.2449   16.2922   -6.2912 C   0  0  0  0  0  0  0  0  0  0  0  0
   42.0455   15.7540   -8.0292 H   0  0  0  0  0  0  0  0  0  0  0  0
 16 17  2  0  0  0
 17 15  1  0  0  0
 17  9  1  0  0  0
  4  9  2  0  0  0
  4 12  1  0  0  0
  9 11  1  0  0  0
 12  8  1  0  0  0
 12 10  1  0  0  0
  8  7  1  0  0  0
 11 10  2  0  0  0
 10  1  1  0  0  0
  7 13  1  0  0  0
  1 14  2  0  0  0
  1  6  1  0  0  0
 13  6  1  0  0  0
 14  2  1  0  0  0
  6  5  2  0  0  0
  2 20  1  0  0  0
  2  3  2  0  0  0
  5  3  1  0  0  0
 20 21  3  0  0  0
 25 22  1  0  0  0
 21 22  1  0  0  0
 22 24  1  0  0  0
 22 23  1  0  0  0
 15 18  1  0  0  0
 15 19  1  0  0  0
 23 26  1  0  0  0
M  END
> <minimizedAffinity>
-8.44879

$$$$
5T8O_76Z_A_705


 26 28  0  0  0  0  0  0  0  0999 V2000
   43.3799   15.6860   -2.7158 C   0  0  0  0  0  0  0  0  0  0  0  0
   42.3991   16.5473   -4.7746 C   0  0  0  0  0  0  0  0  0  0  0  0
   41.9473   17.6564   -4.0765 C   0  0  0  0  0  0  0  0  0  0  0  0
   45.1715   13.2387   -0.8382 C   0  0  0  0  0  0  0  0  0  0  0  0
   42.1948   17.7928   -2.7146 C   0  0  0  0  0  0  0  0  0  0  0  0
   42.9137   16.8132   -2.0231 C   0  0  0  0  0  0  0  0  0  0  0  0
   44.3443   16.7253   -0.0568 C   0  0  0  0  0  0  0  0  0  0  0  0
   44.3216   15.2457    0.3039 C   0  0  0  0  0  0  0  0  0  0  0  0
   45.1544   12.7245   -2.1188 C   0  0  0  0  0  0  0  0  0  0  0  0
   44.0930   14.6308   -2.1384 C   0  0  0  0  0  0  0  0  0  0  0  0
   44.4984   13.5894   -2.8803 N   0  0  0  0  0  0  0  0  0  0  0  0
   44.5160   14.4089   -0.8748 N   0  0  0  0  0  0  0  0  0  0  0  0
   43.1027   17.0195   -0.6775 O   0  0  0  0  0  0  0  0  0  0  0  0
   43.1164   15.5774   -4.0941 C   0  0  0  0  0  0  0  0  0  0  0  0
   44.8593   10.5916   -3.1746 N   0  0  0  0  0  0  0  0  0  0  0  0
   46.9277   11.2818   -2.6020 O   0  0  0  0  0  0  0  0  0  0  0  0
   45.7237   11.4701   -2.6533 C   0  0  0  0  0  0  0  0  0  0  0  0
   45.1861    9.7398   -3.5445 H   0  0  0  0  0  0  0  0  0  0  0  0
   43.8966   10.7971   -3.1883 H   0  0  0  0  0  0  0  0  0  0  0  0
   42.1809   16.4319   -6.0449 C   0  0  0  0  0  0  0  0  0  0  0  0
   41.9579   16.2734   -7.2014 C   0  0  0  0  0  0  0  0  0  0  0  0
   41.7519   16.0386   -8.6461 C   0  0  0  0  0  0  0  0  0  0  0  0
   41.9233   17.2515   -9.3798 O   0  0  0  0  0  0  0  0  0  0  0  0
   40.3360   15.5536   -8.8945 C   0  0  0  0  0  0  0  0  0  0  0  0
   42.7757   15.0312   -9.1474 C   0  0  0  0  0  0  0  0  0  0  0  0
   42.8222   17.5888   -9.2415 H   0  0  0  0  0  0  0  0  0  0  0  0
 16 17  2  0  0  0
 17 15  1  0  0  0
 17  9  1  0  0  0
  4  9  2  0  0  0
  4 12  1  0  0  0
  9 11  1  0  0  0
 12  8  1  0  0  0
 12 10  1  0  0  0
  8  7  1  0  0  0
 11 10  2  0  0  0
 10  1  1  0  0  0
  7 13  1  0  0  0
  1 14  2  0  0  0
  1  6  1  0  0  0
 13  6  1  0  0  0
 14  2  1  0  0  0
  6  5  2  0  0  0
  2 20  1  0  0  0
  2  3  2  0  0  0
  5  3  1  0  0  0
 20 21  3  0  0  0
 25 22  1  0  0  0
 21 22  1  0  0  0
 22 24  1  0  0  0
 22 23  1  0  0  0
 15 18  1  0  0  0
 15 19  1  0  0  0
 23 26  1  0  0  0
M  END
> <minimizedAffinity>
-8.34290

$$$$
5T8O_76Z_A_705


 26 28  0  0  0  0  0  0  0  0999 V2000
   43.3901   16.1950   -1.2912 C   0  0  0  0  0  0  0  0  0  0  0  0
   43.1238   16.3169   -3.7113 C   0  0  0  0  0  0  0  0  0  0  0  0
   42.3600   17.4628   -3.5535 C   0  0  0  0  0  0  0  0  0  0  0  0
   44.6150   14.6694    1.6915 C   0  0  0  0  0  0  0  0  0  0  0  0
   42.1001   17.9795   -2.2885 C   0  0  0  0  0  0  0  0  0  0  0  0
   42.6131   17.3541   -1.1481 C   0  0  0  0  0  0  0  0  0  0  0  0
   43.2633   18.0268    1.0980 C   0  0  0  0  0  0  0  0  0  0  0  0
   43.2452   16.7068    1.8578 C   0  0  0  0  0  0  0  0  0  0  0  0
   45.0942   13.8566    0.6845 C   0  0  0  0  0  0  0  0  0  0  0  0
   43.9444   15.4681   -0.2331 C   0  0  0  0  0  0  0  0  0  0  0  0
   44.6745   14.3670   -0.4651 N   0  0  0  0  0  0  0  0  0  0  0  0
   43.9141   15.6519    1.1049 N   0  0  0  0  0  0  0  0  0  0  0  0
   42.2982   17.9223    0.0631 O   0  0  0  0  0  0  0  0  0  0  0  0
   43.6384   15.6977   -2.5843 C   0  0  0  0  0  0  0  0  0  0  0  0
   46.6397   12.3319   -0.3342 N   0  0  0  0  0  0  0  0  0  0  0  0
   45.9249   11.9626    1.7718 O   0  0  0  0  0  0  0  0  0  0  0  0
   45.9228   12.6352    0.7542 C   0  0  0  0  0  0  0  0  0  0  0  0
   47.2089   11.5286   -0.3407 H   0  0  0  0  0  0  0  0  0  0  0  0
   46.5980   12.9120   -1.1286 H   0  0  0  0  0  0  0  0  0  0  0  0
   43.3770   15.8486   -4.8908 C   0  0  0  0  0  0  0  0  0  0  0  0
   43.5637   15.4482   -5.9941 C   0  0  0  0  0  0  0  0  0  0  0  0
   43.7439   14.8904   -7.3509 C   0  0  0  0  0  0  0  0  0  0  0  0
   44.6379   15.7032   -8.1117 O   0  0  0  0  0  0  0  0  0  0  0  0
   42.4148   14.8696   -8.0822 C   0  0  0  0  0  0  0  0  0  0  0  0
   44.3397   13.4942   -7.2504 C   0  0  0  0  0  0  0  0  0  0  0  0
   45.5003   15.7370   -7.6690 H   0  0  0  0  0  0  0  0  0  0  0  0
 16 17  2  0  0  0
 17 15  1  0  0  0
 17  9  1  0  0  0
  4  9  2  0  0  0
  4 12  1  0  0  0
  9 11  1  0  0  0
 12  8  1  0  0  0
 12 10  1  0  0  0
  8  7  1  0  0  0
 11 10  2  0  0  0
 10  1  1  0  0  0
  7 13  1  0  0  0
  1 14  2  0  0  0
  1  6  1  0  0  0
 13  6  1  0  0  0
 14  2  1  0  0  0
  6  5  2  0  0  0
  2 20  1  0  0  0
  2  3  2  0  0  0
  5  3  1  0  0  0
 20 21  3  0  0  0
 25 22  1  0  0  0
 21 22  1  0  0  0
 22 24  1  0  0  0
 22 23  1  0  0  0
 15 18  1  0  0  0
 15 19  1  0  0  0
 23 26  1  0  0  0
M  END
> <minimizedAffinity>
-8.31051

$$$$
5T8O_76Z_A_705


 26 28  0  0  0  0  0  0  0  0999 V2000
   44.0384   15.2146   -1.2384 C   0  0  0  0  0  0  0  0  0  0  0  0
   42.9183   16.4088   -3.0446 C   0  0  0  0  0  0  0  0  0  0  0  0
   42.5240   17.3793   -2.1368 C   0  0  0  0  0  0  0  0  0  0  0  0
   45.9448   12.4940    0.0608 C   0  0  0  0  0  0  0  0  0  0  0  0
   42.8687   17.2826   -0.7928 C   0  0  0  0  0  0  0  0  0  0  0  0
   43.6293   16.2038   -0.3318 C   0  0  0  0  0  0  0  0  0  0  0  0
   45.1959   15.7904    1.4835 C   0  0  0  0  0  0  0  0  0  0  0  0
   45.1902   14.2707    1.5868 C   0  0  0  0  0  0  0  0  0  0  0  0
   45.8335   12.2061   -1.2843 C   0  0  0  0  0  0  0  0  0  0  0  0
   44.7846   14.0809   -0.9021 C   0  0  0  0  0  0  0  0  0  0  0  0
   45.1300   13.1842   -1.8381 N   0  0  0  0  0  0  0  0  0  0  0  0
   45.2953   13.6490    0.2716 N   0  0  0  0  0  0  0  0  0  0  0  0
   43.9149   16.1783    1.0123 O   0  0  0  0  0  0  0  0  0  0  0  0
   43.6767   15.3415   -2.5927 C   0  0  0  0  0  0  0  0  0  0  0  0
   45.5691   10.5917   -3.0378 N   0  0  0  0  0  0  0  0  0  0  0  0
   47.4547   10.6052   -1.8022 O   0  0  0  0  0  0  0  0  0  0  0  0
   46.3559   11.0652   -2.0645 C   0  0  0  0  0  0  0  0  0  0  0  0
   45.8693    9.8324   -3.5878 H   0  0  0  0  0  0  0  0  0  0  0  0
   44.6900   11.0027   -3.2039 H   0  0  0  0  0  0  0  0  0  0  0  0
   42.6095   16.5108   -4.2971 C   0  0  0  0  0  0  0  0  0  0  0  0
   42.3016   16.5517   -5.4442 C   0  0  0  0  0  0  0  0  0  0  0  0
   41.9877   16.5642   -6.8885 C   0  0  0  0  0  0  0  0  0  0  0  0
   42.0936   17.8882   -7.4124 O   0  0  0  0  0  0  0  0  0  0  0  0
   40.5605   16.1002   -7.1116 C   0  0  0  0  0  0  0  0  0  0  0  0
   42.9776   15.6788   -7.6306 C   0  0  0  0  0  0  0  0  0  0  0  0
   42.9980   18.2150   -7.2848 H   0  0  0  0  0  0  0  0  0  0  0  0
 16 17  2  0  0  0
 17 15  1  0  0  0
 17  9  1  0  0  0
  4  9  2  0  0  0
  4 12  1  0  0  0
  9 11  1  0  0  0
 12  8  1  0  0  0
 12 10  1  0  0  0
  8  7  1  0  0  0
 11 10  2  0  0  0
 10  1  1  0  0  0
  7 13  1  0  0  0
  1 14  2  0  0  0
  1  6  1  0  0  0
 13  6  1  0  0  0
 14  2  1  0  0  0
  6  5  2  0  0  0
  2 20  1  0  0  0
  2  3  2  0  0  0
  5  3  1  0  0  0
 20 21  3  0  0  0
 25 22  1  0  0  0
 21 22  1  0  0  0
 22 24  1  0  0  0
 22 23  1  0  0  0
 15 18  1  0  0  0
 15 19  1  0  0  0
 23 26  1  0  0  0
M  END
> <minimizedAffinity>
-8.28592

$$$$
5T8O_76Z_A_705


 26 28  0  0  0  0  0  0  0  0999 V2000
   43.2288   16.3416   -3.4072 C   0  0  0  0  0  0  0  0  0  0  0  0
   44.3017   15.0520   -1.6384 C   0  0  0  0  0  0  0  0  0  0  0  0
   44.0124   16.0697   -0.7429 C   0  0  0  0  0  0  0  0  0  0  0  0
   42.1905   16.8425   -6.7829 C   0  0  0  0  0  0  0  0  0  0  0  0
   43.3454   17.2177   -1.1573 C   0  0  0  0  0  0  0  0  0  0  0  0
   42.9457   17.3637   -2.4891 C   0  0  0  0  0  0  0  0  0  0  0  0
   41.1850   18.5378   -3.6899 C   0  0  0  0  0  0  0  0  0  0  0  0
   41.7301   18.5886   -5.1113 C   0  0  0  0  0  0  0  0  0  0  0  0
   42.7975   15.6033   -6.8049 C   0  0  0  0  0  0  0  0  0  0  0  0
   42.8997   16.3732   -4.7658 C   0  0  0  0  0  0  0  0  0  0  0  0
   43.2126   15.3476   -5.5718 N   0  0  0  0  0  0  0  0  0  0  0  0
   42.2637   17.2947   -5.5217 N   0  0  0  0  0  0  0  0  0  0  0  0
   42.3038   18.5339   -2.8172 O   0  0  0  0  0  0  0  0  0  0  0  0
   43.9025   15.1905   -2.9574 C   0  0  0  0  0  0  0  0  0  0  0  0
   44.0850   13.8763   -7.8589 N   0  0  0  0  0  0  0  0  0  0  0  0
   42.1966   14.6223   -8.8386 O   0  0  0  0  0  0  0  0  0  0  0  0
   43.0004   14.6576   -7.9219 C   0  0  0  0  0  0  0  0  0  0  0  0
   44.2674   13.2284   -8.5774 H   0  0  0  0  0  0  0  0  0  0  0  0
   44.7005   13.9493   -7.0940 H   0  0  0  0  0  0  0  0  0  0  0  0
   44.9079   13.9783   -1.2455 C   0  0  0  0  0  0  0  0  0  0  0  0
   45.5130   13.0119   -0.9104 C   0  0  0  0  0  0  0  0  0  0  0  0
   46.2474   11.7766   -0.5649 C   0  0  0  0  0  0  0  0  0  0  0  0
   47.6103   11.8719   -0.9797 O   0  0  0  0  0  0  0  0  0  0  0  0
   45.6346   10.5915   -1.2873 C   0  0  0  0  0  0  0  0  0  0  0  0
   46.2223   11.5763    0.9430 C   0  0  0  0  0  0  0  0  0  0  0  0
   48.0322   12.6231   -0.5339 H   0  0  0  0  0  0  0  0  0  0  0  0
 16 17  2  0  0  0
 17 15  1  0  0  0
 17  9  1  0  0  0
  4  9  2  0  0  0
  4 12  1  0  0  0
  9 11  1  0  0  0
 12  8  1  0  0  0
 12 10  1  0  0  0
  8  7  1  0  0  0
 11 10  2  0  0  0
 10  1  1  0  0  0
  7 13  1  0  0  0
  1 14  2  0  0  0
  1  6  1  0  0  0
 13  6  1  0  0  0
 14  2  1  0  0  0
  6  5  2  0  0  0
  2 20  1  0  0  0
  2  3  2  0  0  0
  5  3  1  0  0  0
 20 21  3  0  0  0
 25 22  1  0  0  0
 21 22  1  0  0  0
 22 24  1  0  0  0
 22 23  1  0  0  0
 15 18  1  0  0  0
 15 19  1  0  0  0
 23 26  1  0  0  0
M  END
> <minimizedAffinity>
-8.19851

$$$$
5T8O_76Z_A_705


 26 28  0  0  0  0  0  0  0  0999 V2000
   44.6002   14.3522   -1.8945 C   0  0  0  0  0  0  0  0  0  0  0  0
   44.0140   14.4777   -4.2573 C   0  0  0  0  0  0  0  0  0  0  0  0
   44.8241   13.3794   -4.5002 C   0  0  0  0  0  0  0  0  0  0  0  0
   44.4351   15.4993    1.4792 C   0  0  0  0  0  0  0  0  0  0  0  0
   45.5245   12.7659   -3.4669 C   0  0  0  0  0  0  0  0  0  0  0  0
   45.4179   13.2431   -2.1571 C   0  0  0  0  0  0  0  0  0  0  0  0
   45.6114   12.3175    0.0849 C   0  0  0  0  0  0  0  0  0  0  0  0
   45.8467   13.5582    0.9367 C   0  0  0  0  0  0  0  0  0  0  0  0
   43.6084   16.3670    0.7949 C   0  0  0  0  0  0  0  0  0  0  0  0
   44.4230   14.9350   -0.6358 C   0  0  0  0  0  0  0  0  0  0  0  0
   43.6204   15.9982   -0.4787 N   0  0  0  0  0  0  0  0  0  0  0  0
   44.9221   14.6288    0.5816 N   0  0  0  0  0  0  0  0  0  0  0  0
   46.1530   12.5875   -1.1985 O   0  0  0  0  0  0  0  0  0  0  0  0
   43.9015   14.9499   -2.9601 C   0  0  0  0  0  0  0  0  0  0  0  0
   42.2691   17.3962    2.4972 N   0  0  0  0  0  0  0  0  0  0  0  0
   42.6840   18.5018    0.5768 O   0  0  0  0  0  0  0  0  0  0  0  0
   42.8141   17.5142    1.2808 C   0  0  0  0  0  0  0  0  0  0  0  0
   41.7302   18.1316    2.8687 H   0  0  0  0  0  0  0  0  0  0  0  0
   42.4071   16.5739    3.0208 H   0  0  0  0  0  0  0  0  0  0  0  0
   43.3512   15.0356   -5.2186 C   0  0  0  0  0  0  0  0  0  0  0  0
   42.6938   15.5398   -6.0707 C   0  0  0  0  0  0  0  0  0  0  0  0
   41.8632   16.0931   -7.1609 C   0  0  0  0  0  0  0  0  0  0  0  0
   42.0708   17.5004   -7.2835 O   0  0  0  0  0  0  0  0  0  0  0  0
   40.3936   15.8758   -6.8527 C   0  0  0  0  0  0  0  0  0  0  0  0
   42.2530   15.4387   -8.4778 C   0  0  0  0  0  0  0  0  0  0  0  0
   43.0045   17.6735   -7.4813 H   0  0  0  0  0  0  0  0  0  0  0  0
 16 17  2  0  0  0
 17 15  1  0  0  0
 17  9  1  0  0  0
  4  9  2  0  0  0
  4 12  1  0  0  0
  9 11  1  0  0  0
 12  8  1  0  0  0
 12 10  1  0  0  0
  8  7  1  0  0  0
 11 10  2  0  0  0
 10  1  1  0  0  0
  7 13  1  0  0  0
  1 14  2  0  0  0
  1  6  1  0  0  0
 13  6  1  0  0  0
 14  2  1  0  0  0
  6  5  2  0  0  0
  2 20  1  0  0  0
  2  3  2  0  0  0
  5  3  1  0  0  0
 20 21  3  0  0  0
 25 22  1  0  0  0
 21 22  1  0  0  0
 22 24  1  0  0  0
 22 23  1  0  0  0
 15 18  1  0  0  0
 15 19  1  0  0  0
 23 26  1  0  0  0
M  END
> <minimizedAffinity>
-7.85859

$$$$
5T8O_76Z_A_705


 26 28  0  0  0  0  0  0  0  0999 V2000
   43.8448   15.8853   -1.1404 C   0  0  0  0  0  0  0  0  0  0  0  0
   42.8708   17.9677   -0.3297 C   0  0  0  0  0  0  0  0  0  0  0  0
   42.5226   18.2930   -1.6314 C   0  0  0  0  0  0  0  0  0  0  0  0
   45.5547   12.7900   -0.6712 C   0  0  0  0  0  0  0  0  0  0  0  0
   42.8280   17.4402   -2.6869 C   0  0  0  0  0  0  0  0  0  0  0  0
   43.4879   16.2301   -2.4525 C   0  0  0  0  0  0  0  0  0  0  0  0
   43.6043   14.0434   -3.5131 C   0  0  0  0  0  0  0  0  0  0  0  0
   44.8934   13.4664   -2.9428 C   0  0  0  0  0  0  0  0  0  0  0  0
   45.4546   13.3082    0.6039 C   0  0  0  0  0  0  0  0  0  0  0  0
   44.5209   14.7166   -0.7765 C   0  0  0  0  0  0  0  0  0  0  0  0
   44.8233   14.4703    0.5069 N   0  0  0  0  0  0  0  0  0  0  0  0
   44.9738   13.6702   -1.5009 N   0  0  0  0  0  0  0  0  0  0  0  0
   43.7630   15.4529   -3.5521 O   0  0  0  0  0  0  0  0  0  0  0  0
   43.5197   16.7672   -0.0928 C   0  0  0  0  0  0  0  0  0  0  0  0
   45.9671   13.6170    2.9262 N   0  0  0  0  0  0  0  0  0  0  0  0
   46.2355   11.5886    1.9797 O   0  0  0  0  0  0  0  0  0  0  0  0
   45.9191   12.7637    1.8966 C   0  0  0  0  0  0  0  0  0  0  0  0
   46.2695   13.3057    3.8099 H   0  0  0  0  0  0  0  0  0  0  0  0
   45.7001   14.5562    2.8000 H   0  0  0  0  0  0  0  0  0  0  0  0
   42.5704   18.7561    0.6515 C   0  0  0  0  0  0  0  0  0  0  0  0
   42.2410   19.4851    1.5304 C   0  0  0  0  0  0  0  0  0  0  0  0
   41.8511   20.4542    2.5761 C   0  0  0  0  0  0  0  0  0  0  0  0
   40.4620   20.7687    2.4743 O   0  0  0  0  0  0  0  0  0  0  0  0
   42.6239   21.7474    2.3968 C   0  0  0  0  0  0  0  0  0  0  0  0
   42.1018   19.8479    3.9487 C   0  0  0  0  0  0  0  0  0  0  0  0
   39.9384   19.9597    2.5850 H   0  0  0  0  0  0  0  0  0  0  0  0
 16 17  2  0  0  0
 17 15  1  0  0  0
 17  9  1  0  0  0
  4  9  2  0  0  0
  4 12  1  0  0  0
  9 11  1  0  0  0
 12  8  1  0  0  0
 12 10  1  0  0  0
  8  7  1  0  0  0
 11 10  2  0  0  0
 10  1  1  0  0  0
  7 13  1  0  0  0
  1 14  2  0  0  0
  1  6  1  0  0  0
 13  6  1  0  0  0
 14  2  1  0  0  0
  6  5  2  0  0  0
  2 20  1  0  0  0
  2  3  2  0  0  0
  5  3  1  0  0  0
 20 21  3  0  0  0
 25 22  1  0  0  0
 21 22  1  0  0  0
 22 24  1  0  0  0
 22 23  1  0  0  0
 15 18  1  0  0  0
 15 19  1  0  0  0
 23 26  1  0  0  0
M  END
> <minimizedAffinity>
-7.83267

$$$$
