6HPW_GKT_A_209


 29 32  0  0  0  0  0  0  0  0999 V2000
   -0.9753   15.6709   16.8834 C   0  0  0  0  0  0  0  0  0  0  0  0
   -2.0592   14.8032   17.0420 C   0  0  0  0  0  0  0  0  0  0  0  0
   -2.9558   15.0373   18.0758 C   0  0  0  0  0  0  0  0  0  0  0  0
   -2.7786   16.1343   18.9104 C   0  0  0  0  0  0  0  0  0  0  0  0
   -1.7194   17.0122   18.7519 C   0  0  0  0  0  0  0  0  0  0  0  0
   -0.8191   16.7734   17.7265 C   0  0  0  0  0  0  0  0  0  0  0  0
   -4.0807   14.3299   18.4728 N   0  0  0  0  0  0  0  0  0  0  0  0
   -4.5627   15.0018   19.5025 C   0  0  0  0  0  0  0  0  0  0  0  0
   -3.8195   16.0851   19.8136 N   0  0  0  0  0  0  0  0  0  0  0  0
   -4.4417   13.5055   18.0736 H   0  0  0  0  0  0  0  0  0  0  0  0
   -0.1048   15.1680   14.6358 C   0  0  0  0  0  0  0  0  0  0  0  0
   -1.1868   15.1972   14.0612 O   0  0  0  0  0  0  0  0  0  0  0  0
    0.0367   15.4120   15.9504 N   0  0  0  0  0  0  0  0  0  0  0  0
    0.9581   15.4083   16.2972 H   0  0  0  0  0  0  0  0  0  0  0  0
    3.4159   14.2976   12.2907 C   0  0  0  0  0  0  0  0  0  0  0  0
    2.3169   13.4374   12.3370 C   0  0  0  0  0  0  0  0  0  0  0  0
    1.2055   13.7075   13.1161 C   0  0  0  0  0  0  0  0  0  0  0  0
    1.1531   14.8537   13.8940 C   0  0  0  0  0  0  0  0  0  0  0  0
    2.2432   15.7246   13.8764 C   0  0  0  0  0  0  0  0  0  0  0  0
    3.3412   15.4638   13.0596 C   0  0  0  0  0  0  0  0  0  0  0  0
    4.7894   17.0128   12.7940 I   0  0  0  0  0  0  0  0  0  0  0  0
    4.6185   13.9255   11.4664 C   0  0  0  0  0  0  0  0  0  0  0  0
   -5.8491   14.6906   20.1982 C   0  0  0  0  0  0  0  0  0  0  0  0
   -7.0261   15.1264   19.4357 N   0  0  0  0  0  0  0  0  0  0  0  0
   -7.9652   15.8593   20.3165 C   0  0  0  0  0  0  0  0  0  0  0  0
   -9.1179   16.4747   19.5484 C   0  0  0  0  0  0  0  0  0  0  0  0
   -9.7029   15.4882   18.5551 C   0  0  0  0  0  0  0  0  0  0  0  0
   -9.2381   14.0813   18.8669 C   0  0  0  0  0  0  0  0  0  0  0  0
   -7.7173   13.9762   18.8288 C   0  0  0  0  0  0  0  0  0  0  0  0
 22 15  1  0  0  0
 16 15  2  0  0  0
 16 17  1  0  0  0
 15 20  1  0  0  0
 17 18  2  0  0  0
 20 21  1  0  0  0
 20 19  2  0  0  0
 12 11  2  0  0  0
 18 19  1  0  0  0
 18 11  1  0  0  0
 11 13  1  0  0  0
 13  1  1  0  0  0
  2  1  2  0  0  0
  2  3  1  0  0  0
  1  6  1  0  0  0
  7  3  1  0  0  0
  7  8  1  0  0  0
  3  4  2  0  0  0
  6  5  2  0  0  0
  8 23  1  0  0  0
  8  9  2  0  0  0
  4  5  1  0  0  0
  4  9  1  0  0  0
 23 24  1  0  0  0
 24 25  1  0  0  0
 24 29  1  0  0  0
 25 26  1  0  0  0
 26 27  1  0  0  0
 29 28  1  0  0  0
 27 28  1  0  0  0
 13 14  1  0  0  0
  7 10  1  0  0  0
M  END
> <minimizedAffinity>
-8.28922

$$$$
6HPW_GKT_A_209


 29 32  0  0  0  0  0  0  0  0999 V2000
   -1.0820   15.6881   16.9385 C   0  0  0  0  0  0  0  0  0  0  0  0
   -2.1891   14.8498   17.0960 C   0  0  0  0  0  0  0  0  0  0  0  0
   -3.0790   15.1067   18.1301 C   0  0  0  0  0  0  0  0  0  0  0  0
   -2.8722   16.1975   18.9662 C   0  0  0  0  0  0  0  0  0  0  0  0
   -1.7897   17.0466   18.8088 C   0  0  0  0  0  0  0  0  0  0  0  0
   -0.8961   16.7848   17.7830 C   0  0  0  0  0  0  0  0  0  0  0  0
   -4.2227   14.4295   18.5263 N   0  0  0  0  0  0  0  0  0  0  0  0
   -4.6863   15.1129   19.5569 C   0  0  0  0  0  0  0  0  0  0  0  0
   -3.9141   16.1752   19.8694 N   0  0  0  0  0  0  0  0  0  0  0  0
   -4.6058   13.6157   18.1260 H   0  0  0  0  0  0  0  0  0  0  0  0
   -0.2255   15.1652   14.6902 C   0  0  0  0  0  0  0  0  0  0  0  0
   -1.3063   15.2249   14.1156 O   0  0  0  0  0  0  0  0  0  0  0  0
   -0.0775   15.4031   16.0052 N   0  0  0  0  0  0  0  0  0  0  0  0
    0.8434   15.3736   16.3520 H   0  0  0  0  0  0  0  0  0  0  0  0
    3.2689   14.1978   12.3437 C   0  0  0  0  0  0  0  0  0  0  0  0
    2.1561   13.3569   12.4093 C   0  0  0  0  0  0  0  0  0  0  0  0
    1.0530   13.6582   13.1889 C   0  0  0  0  0  0  0  0  0  0  0  0
    1.0235   14.8178   13.9479 C   0  0  0  0  0  0  0  0  0  0  0  0
    2.1277   15.6701   13.9108 C   0  0  0  0  0  0  0  0  0  0  0  0
    3.2172   15.3776   13.0935 C   0  0  0  0  0  0  0  0  0  0  0  0
    4.6895   16.8977   12.7955 I   0  0  0  0  0  0  0  0  0  0  0  0
    4.4612   13.7922   11.5201 C   0  0  0  0  0  0  0  0  0  0  0  0
   -5.9806   14.8357   20.2522 C   0  0  0  0  0  0  0  0  0  0  0  0
   -6.8137   13.8630   19.5333 N   0  0  0  0  0  0  0  0  0  0  0  0
   -8.1641   14.4230   19.2930 C   0  0  0  0  0  0  0  0  0  0  0  0
   -9.0126   13.5287   18.4112 C   0  0  0  0  0  0  0  0  0  0  0  0
   -8.9149   12.0785   18.8466 C   0  0  0  0  0  0  0  0  0  0  0  0
   -8.3197   11.9795   20.2353 C   0  0  0  0  0  0  0  0  0  0  0  0
   -6.9305   12.6058   20.2914 C   0  0  0  0  0  0  0  0  0  0  0  0
 22 15  1  0  0  0
 16 15  2  0  0  0
 16 17  1  0  0  0
 15 20  1  0  0  0
 17 18  2  0  0  0
 20 21  1  0  0  0
 20 19  2  0  0  0
 12 11  2  0  0  0
 18 19  1  0  0  0
 18 11  1  0  0  0
 11 13  1  0  0  0
 13  1  1  0  0  0
  2  1  2  0  0  0
  2  3  1  0  0  0
  1  6  1  0  0  0
  7  3  1  0  0  0
  7  8  1  0  0  0
  3  4  2  0  0  0
  6  5  2  0  0  0
  8 23  1  0  0  0
  8  9  2  0  0  0
  4  5  1  0  0  0
  4  9  1  0  0  0
 23 24  1  0  0  0
 24 25  1  0  0  0
 24 29  1  0  0  0
 25 26  1  0  0  0
 26 27  1  0  0  0
 29 28  1  0  0  0
 27 28  1  0  0  0
 13 14  1  0  0  0
  7 10  1  0  0  0
M  END
> <minimizedAffinity>
-8.08674

$$$$
6HPW_GKT_A_209


 29 32  0  0  0  0  0  0  0  0999 V2000
   -0.9004   15.6248   16.7561 C   0  0  0  0  0  0  0  0  0  0  0  0
   -1.9954   14.7623   16.8570 C   0  0  0  0  0  0  0  0  0  0  0  0
   -2.9137   14.9662   17.8781 C   0  0  0  0  0  0  0  0  0  0  0  0
   -2.7462   16.0295   18.7573 C   0  0  0  0  0  0  0  0  0  0  0  0
   -1.6760   16.9024   18.6563 C   0  0  0  0  0  0  0  0  0  0  0  0
   -0.7541   16.6933   17.6434 C   0  0  0  0  0  0  0  0  0  0  0  0
   -4.0537   14.2554   18.2224 N   0  0  0  0  0  0  0  0  0  0  0  0
   -4.5535   14.8929   19.2653 C   0  0  0  0  0  0  0  0  0  0  0  0
   -3.8083   15.9565   19.6339 N   0  0  0  0  0  0  0  0  0  0  0  0
   -4.4126   13.4501   17.7843 H   0  0  0  0  0  0  0  0  0  0  0  0
    0.0142   15.1530   14.5193 C   0  0  0  0  0  0  0  0  0  0  0  0
   -1.0592   15.1652   13.9281 O   0  0  0  0  0  0  0  0  0  0  0  0
    0.1306   15.3912   15.8374 N   0  0  0  0  0  0  0  0  0  0  0  0
    1.0464   15.4028   16.1985 H   0  0  0  0  0  0  0  0  0  0  0  0
    3.5865   14.3640   12.2241 C   0  0  0  0  0  0  0  0  0  0  0  0
    2.5055   13.4806   12.2520 C   0  0  0  0  0  0  0  0  0  0  0  0
    1.3772   13.7248   13.0153 C   0  0  0  0  0  0  0  0  0  0  0  0
    1.2892   14.8674   13.7953 C   0  0  0  0  0  0  0  0  0  0  0  0
    2.3608   15.7613   13.7960 C   0  0  0  0  0  0  0  0  0  0  0  0
    3.4759   15.5261   12.9948 C   0  0  0  0  0  0  0  0  0  0  0  0
    4.8947   17.1062   12.7545 I   0  0  0  0  0  0  0  0  0  0  0  0
    4.8087   14.0198   11.4166 C   0  0  0  0  0  0  0  0  0  0  0  0
   -5.8584   14.5683   19.9192 C   0  0  0  0  0  0  0  0  0  0  0  0
   -6.3498   15.6557   20.7754 N   0  0  0  0  0  0  0  0  0  0  0  0
   -6.2312   15.2776   22.2030 C   0  0  0  0  0  0  0  0  0  0  0  0
   -6.5687   16.4243   23.1350 C   0  0  0  0  0  0  0  0  0  0  0  0
   -7.8349   17.1342   22.6936 C   0  0  0  0  0  0  0  0  0  0  0  0
   -8.5990   16.2879   21.6973 C   0  0  0  0  0  0  0  0  0  0  0  0
   -7.7534   15.9772   20.4669 C   0  0  0  0  0  0  0  0  0  0  0  0
 22 15  1  0  0  0
 16 15  2  0  0  0
 16 17  1  0  0  0
 15 20  1  0  0  0
 17 18  2  0  0  0
 20 21  1  0  0  0
 20 19  2  0  0  0
 12 11  2  0  0  0
 18 19  1  0  0  0
 18 11  1  0  0  0
 11 13  1  0  0  0
 13  1  1  0  0  0
  2  1  2  0  0  0
  2  3  1  0  0  0
  1  6  1  0  0  0
  7  3  1  0  0  0
  7  8  1  0  0  0
  3  4  2  0  0  0
  6  5  2  0  0  0
  8 23  1  0  0  0
  8  9  2  0  0  0
  4  5  1  0  0  0
  4  9  1  0  0  0
 23 24  1  0  0  0
 24 25  1  0  0  0
 24 29  1  0  0  0
 25 26  1  0  0  0
 26 27  1  0  0  0
 29 28  1  0  0  0
 27 28  1  0  0  0
 13 14  1  0  0  0
  7 10  1  0  0  0
M  END
> <minimizedAffinity>
-7.64711

$$$$
6HPW_GKT_A_209


 29 32  0  0  0  0  0  0  0  0999 V2000
    1.5702   14.8057   14.1229 C   0  0  0  0  0  0  0  0  0  0  0  0
    2.5892   15.7164   13.8309 C   0  0  0  0  0  0  0  0  0  0  0  0
    3.4965   15.4038   12.8276 C   0  0  0  0  0  0  0  0  0  0  0  0
    3.3623   14.2158   12.1189 C   0  0  0  0  0  0  0  0  0  0  0  0
    2.3459   13.3140   12.3858 C   0  0  0  0  0  0  0  0  0  0  0  0
    1.4461   13.6212   13.3935 C   0  0  0  0  0  0  0  0  0  0  0  0
    4.6022   16.0991   12.3614 N   0  0  0  0  0  0  0  0  0  0  0  0
    5.0956   15.3492   11.3927 C   0  0  0  0  0  0  0  0  0  0  0  0
    4.3992   14.2073   11.2097 N   0  0  0  0  0  0  0  0  0  0  0  0
    4.9450   16.9642   12.6828 H   0  0  0  0  0  0  0  0  0  0  0  0
   -0.6143   15.2290   15.1769 C   0  0  0  0  0  0  0  0  0  0  0  0
   -1.2648   15.2483   14.1386 O   0  0  0  0  0  0  0  0  0  0  0  0
    0.7097   14.9972   15.2112 N   0  0  0  0  0  0  0  0  0  0  0  0
    1.1218   14.9576   16.1044 H   0  0  0  0  0  0  0  0  0  0  0  0
   -2.5851   16.1162   18.9161 C   0  0  0  0  0  0  0  0  0  0  0  0
   -1.4602   16.8185   18.4787 C   0  0  0  0  0  0  0  0  0  0  0  0
   -0.8148   16.5073   17.2948 C   0  0  0  0  0  0  0  0  0  0  0  0
   -1.2671   15.4658   16.4995 C   0  0  0  0  0  0  0  0  0  0  0  0
   -2.3818   14.7389   16.9192 C   0  0  0  0  0  0  0  0  0  0  0  0
   -3.0479   15.0841   18.0930 C   0  0  0  0  0  0  0  0  0  0  0  0
   -4.9491   14.1854   18.4737 I   0  0  0  0  0  0  0  0  0  0  0  0
   -3.2134   16.4653   20.2381 C   0  0  0  0  0  0  0  0  0  0  0  0
    6.2295   15.7435   10.5014 C   0  0  0  0  0  0  0  0  0  0  0  0
    6.6021   14.6839    9.5553 N   0  0  0  0  0  0  0  0  0  0  0  0
    7.7608   13.9190   10.0723 C   0  0  0  0  0  0  0  0  0  0  0  0
    8.0842   12.7102    9.2169 C   0  0  0  0  0  0  0  0  0  0  0  0
    8.0710   13.0641    7.7415 C   0  0  0  0  0  0  0  0  0  0  0  0
    8.1162   14.5660    7.5547 C   0  0  0  0  0  0  0  0  0  0  0  0
    6.9341   15.2473    8.2358 C   0  0  0  0  0  0  0  0  0  0  0  0
 22 15  1  0  0  0
 16 15  2  0  0  0
 16 17  1  0  0  0
 15 20  1  0  0  0
 17 18  2  0  0  0
 20 21  1  0  0  0
 20 19  2  0  0  0
 12 11  2  0  0  0
 18 19  1  0  0  0
 18 11  1  0  0  0
 11 13  1  0  0  0
 13  1  1  0  0  0
  2  1  2  0  0  0
  2  3  1  0  0  0
  1  6  1  0  0  0
  7  3  1  0  0  0
  7  8  1  0  0  0
  3  4  2  0  0  0
  6  5  2  0  0  0
  8 23  1  0  0  0
  8  9  2  0  0  0
  4  5  1  0  0  0
  4  9  1  0  0  0
 23 24  1  0  0  0
 24 25  1  0  0  0
 24 29  1  0  0  0
 25 26  1  0  0  0
 26 27  1  0  0  0
 29 28  1  0  0  0
 27 28  1  0  0  0
 13 14  1  0  0  0
  7 10  1  0  0  0
M  END
> <minimizedAffinity>
-7.05053

$$$$
6HPW_GKT_A_209


 29 32  0  0  0  0  0  0  0  0999 V2000
    1.5499   14.8527   14.0636 C   0  0  0  0  0  0  0  0  0  0  0  0
    2.6673   15.6769   13.9047 C   0  0  0  0  0  0  0  0  0  0  0  0
    3.6292   15.3238   12.9680 C   0  0  0  0  0  0  0  0  0  0  0  0
    3.4543   14.1838   12.1924 C   0  0  0  0  0  0  0  0  0  0  0  0
    2.3424   13.3694   12.3269 C   0  0  0  0  0  0  0  0  0  0  0  0
    1.3871   13.7162   13.2685 C   0  0  0  0  0  0  0  0  0  0  0  0
    4.8292   15.9329   12.6325 N   0  0  0  0  0  0  0  0  0  0  0  0
    5.3387   15.1816   11.6733 C   0  0  0  0  0  0  0  0  0  0  0  0
    4.5632   14.1175   11.3753 N   0  0  0  0  0  0  0  0  0  0  0  0
    5.2171   16.7484   13.0244 H   0  0  0  0  0  0  0  0  0  0  0  0
   -0.7102   15.2560   14.9533 C   0  0  0  0  0  0  0  0  0  0  0  0
   -1.2940   15.1870   13.8781 O   0  0  0  0  0  0  0  0  0  0  0  0
    0.6161   15.0775   15.0830 N   0  0  0  0  0  0  0  0  0  0  0  0
    0.9719   15.1083   16.0004 H   0  0  0  0  0  0  0  0  0  0  0  0
   -2.7640   15.9065   18.6965 C   0  0  0  0  0  0  0  0  0  0  0  0
   -3.1151   14.8778   17.8199 C   0  0  0  0  0  0  0  0  0  0  0  0
   -2.4735   14.6953   16.6074 C   0  0  0  0  0  0  0  0  0  0  0  0
   -1.4532   15.5481   16.2159 C   0  0  0  0  0  0  0  0  0  0  0  0
   -1.0905   16.5926   17.0672 C   0  0  0  0  0  0  0  0  0  0  0  0
   -1.7159   16.7450   18.3027 C   0  0  0  0  0  0  0  0  0  0  0  0
   -0.8603   18.1146   19.7025 I   0  0  0  0  0  0  0  0  0  0  0  0
   -3.5325   16.0881   19.9774 C   0  0  0  0  0  0  0  0  0  0  0  0
    6.5780   15.5062   10.9022 C   0  0  0  0  0  0  0  0  0  0  0  0
    7.1202   14.3450   10.1850 N   0  0  0  0  0  0  0  0  0  0  0  0
    8.1126   13.6389   11.0285 C   0  0  0  0  0  0  0  0  0  0  0  0
    8.5824   12.3400   10.4044 C   0  0  0  0  0  0  0  0  0  0  0  0
    8.9071   12.5249    8.9338 C   0  0  0  0  0  0  0  0  0  0  0  0
    9.0363   13.9959    8.5990 C   0  0  0  0  0  0  0  0  0  0  0  0
    7.7529   14.7545    8.9197 C   0  0  0  0  0  0  0  0  0  0  0  0
 22 15  1  0  0  0
 16 15  2  0  0  0
 16 17  1  0  0  0
 15 20  1  0  0  0
 17 18  2  0  0  0
 20 21  1  0  0  0
 20 19  2  0  0  0
 12 11  2  0  0  0
 18 19  1  0  0  0
 18 11  1  0  0  0
 11 13  1  0  0  0
 13  1  1  0  0  0
  2  1  2  0  0  0
  2  3  1  0  0  0
  1  6  1  0  0  0
  7  3  1  0  0  0
  7  8  1  0  0  0
  3  4  2  0  0  0
  6  5  2  0  0  0
  8 23  1  0  0  0
  8  9  2  0  0  0
  4  5  1  0  0  0
  4  9  1  0  0  0
 23 24  1  0  0  0
 24 25  1  0  0  0
 24 29  1  0  0  0
 25 26  1  0  0  0
 26 27  1  0  0  0
 29 28  1  0  0  0
 27 28  1  0  0  0
 13 14  1  0  0  0
  7 10  1  0  0  0
M  END
> <minimizedAffinity>
-6.99696

$$$$
6HPW_GKT_A_209


 29 32  0  0  0  0  0  0  0  0999 V2000
    1.5282   14.8667   14.0810 C   0  0  0  0  0  0  0  0  0  0  0  0
    2.5882   15.7480   13.8517 C   0  0  0  0  0  0  0  0  0  0  0  0
    3.5514   15.4036   12.9130 C   0  0  0  0  0  0  0  0  0  0  0  0
    3.4329   14.2140   12.2043 C   0  0  0  0  0  0  0  0  0  0  0  0
    2.3772   13.3413   12.4086 C   0  0  0  0  0  0  0  0  0  0  0  0
    1.4211   13.6801   13.3523 C   0  0  0  0  0  0  0  0  0  0  0  0
    4.7038   16.0660   12.5171 N   0  0  0  0  0  0  0  0  0  0  0  0
    5.2402   15.2957   11.5881 C   0  0  0  0  0  0  0  0  0  0  0  0
    4.5272   14.1710   11.3663 N   0  0  0  0  0  0  0  0  0  0  0  0
    5.0475   16.9243   12.8553 H   0  0  0  0  0  0  0  0  0  0  0  0
   -0.7260   15.2579   14.9908 C   0  0  0  0  0  0  0  0  0  0  0  0
   -1.3197   15.1796   13.9217 O   0  0  0  0  0  0  0  0  0  0  0  0
    0.6028   15.0895   15.1083 N   0  0  0  0  0  0  0  0  0  0  0  0
    0.9673   15.1271   16.0221 H   0  0  0  0  0  0  0  0  0  0  0  0
   -2.7471   15.9117   18.7512 C   0  0  0  0  0  0  0  0  0  0  0  0
   -3.0959   14.8730   17.8856 C   0  0  0  0  0  0  0  0  0  0  0  0
   -2.4652   14.6892   16.6676 C   0  0  0  0  0  0  0  0  0  0  0  0
   -1.4587   15.5506   16.2593 C   0  0  0  0  0  0  0  0  0  0  0  0
   -1.0988   16.6050   17.0994 C   0  0  0  0  0  0  0  0  0  0  0  0
   -1.7127   16.7591   18.3404 C   0  0  0  0  0  0  0  0  0  0  0  0
   -0.8577   18.1480   19.7215 I   0  0  0  0  0  0  0  0  0  0  0  0
   -3.5039   16.0937   20.0390 C   0  0  0  0  0  0  0  0  0  0  0  0
    6.4409   15.6529   10.7718 C   0  0  0  0  0  0  0  0  0  0  0  0
    6.4515   17.0644   10.3663 N   0  0  0  0  0  0  0  0  0  0  0  0
    5.6506   17.2499    9.1337 C   0  0  0  0  0  0  0  0  0  0  0  0
    5.4901   18.7107    8.7626 C   0  0  0  0  0  0  0  0  0  0  0  0
    6.8107   19.4504    8.8666 C   0  0  0  0  0  0  0  0  0  0  0  0
    7.9639   18.4718    8.9378 C   0  0  0  0  0  0  0  0  0  0  0  0
    7.8271   17.5365   10.1344 C   0  0  0  0  0  0  0  0  0  0  0  0
 22 15  1  0  0  0
 16 15  2  0  0  0
 16 17  1  0  0  0
 15 20  1  0  0  0
 17 18  2  0  0  0
 20 21  1  0  0  0
 20 19  2  0  0  0
 12 11  2  0  0  0
 18 19  1  0  0  0
 18 11  1  0  0  0
 11 13  1  0  0  0
 13  1  1  0  0  0
  2  1  2  0  0  0
  2  3  1  0  0  0
  1  6  1  0  0  0
  7  3  1  0  0  0
  7  8  1  0  0  0
  3  4  2  0  0  0
  6  5  2  0  0  0
  8 23  1  0  0  0
  8  9  2  0  0  0
  4  5  1  0  0  0
  4  9  1  0  0  0
 23 24  1  0  0  0
 24 25  1  0  0  0
 24 29  1  0  0  0
 25 26  1  0  0  0
 26 27  1  0  0  0
 29 28  1  0  0  0
 27 28  1  0  0  0
 13 14  1  0  0  0
  7 10  1  0  0  0
M  END
> <minimizedAffinity>
-6.80570

$$$$
6HPW_GKT_A_209


 29 32  0  0  0  0  0  0  0  0999 V2000
   -0.8632   14.9990   14.8197 C   0  0  0  0  0  0  0  0  0  0  0  0
    0.4544   15.4248   15.0083 C   0  0  0  0  0  0  0  0  0  0  0  0
    1.3938   15.1434   14.0255 C   0  0  0  0  0  0  0  0  0  0  0  0
    1.0076   14.4744   12.8702 C   0  0  0  0  0  0  0  0  0  0  0  0
   -0.2987   14.0641   12.6629 C   0  0  0  0  0  0  0  0  0  0  0  0
   -1.2343   14.3360   13.6478 C   0  0  0  0  0  0  0  0  0  0  0  0
    2.7524   15.4171   13.9703 N   0  0  0  0  0  0  0  0  0  0  0  0
    3.1518   14.9377   12.8064 C   0  0  0  0  0  0  0  0  0  0  0  0
    2.1522   14.3555   12.1103 N   0  0  0  0  0  0  0  0  0  0  0  0
    3.3002   15.8705   14.6511 H   0  0  0  0  0  0  0  0  0  0  0  0
   -1.6363   15.0224   17.1572 C   0  0  0  0  0  0  0  0  0  0  0  0
   -0.5362   14.8417   17.6661 O   0  0  0  0  0  0  0  0  0  0  0  0
   -1.8242   15.1292   15.8302 N   0  0  0  0  0  0  0  0  0  0  0  0
   -2.7435   15.3210   15.5347 H   0  0  0  0  0  0  0  0  0  0  0  0
   -5.1471   15.1430   19.6696 C   0  0  0  0  0  0  0  0  0  0  0  0
   -5.0758   14.3508   18.5219 C   0  0  0  0  0  0  0  0  0  0  0  0
   -3.9595   14.3419   17.7041 C   0  0  0  0  0  0  0  0  0  0  0  0
   -2.8647   15.1394   17.9991 C   0  0  0  0  0  0  0  0  0  0  0  0
   -2.9141   15.9506   19.1334 C   0  0  0  0  0  0  0  0  0  0  0  0
   -4.0265   15.9241   19.9715 C   0  0  0  0  0  0  0  0  0  0  0  0
   -3.8792   16.8910   21.8718 I   0  0  0  0  0  0  0  0  0  0  0  0
   -6.4075   15.1514   20.4915 C   0  0  0  0  0  0  0  0  0  0  0  0
    4.5257   15.1045   12.2407 C   0  0  0  0  0  0  0  0  0  0  0  0
    5.0696   16.4510   12.4596 N   0  0  0  0  0  0  0  0  0  0  0  0
    4.4356   17.4171   11.5324 C   0  0  0  0  0  0  0  0  0  0  0  0
    4.8375   18.8489   11.8253 C   0  0  0  0  0  0  0  0  0  0  0  0
    6.3335   18.9625   12.0517 C   0  0  0  0  0  0  0  0  0  0  0  0
    7.0416   17.7185   11.5579 C   0  0  0  0  0  0  0  0  0  0  0  0
    6.5293   16.4686   12.2655 C   0  0  0  0  0  0  0  0  0  0  0  0
 22 15  1  0  0  0
 16 15  2  0  0  0
 16 17  1  0  0  0
 15 20  1  0  0  0
 17 18  2  0  0  0
 20 21  1  0  0  0
 20 19  2  0  0  0
 12 11  2  0  0  0
 18 19  1  0  0  0
 18 11  1  0  0  0
 11 13  1  0  0  0
 13  1  1  0  0  0
  2  1  2  0  0  0
  2  3  1  0  0  0
  1  6  1  0  0  0
  7  3  1  0  0  0
  7  8  1  0  0  0
  3  4  2  0  0  0
  6  5  2  0  0  0
  8 23  1  0  0  0
  8  9  2  0  0  0
  4  5  1  0  0  0
  4  9  1  0  0  0
 23 24  1  0  0  0
 24 25  1  0  0  0
 24 29  1  0  0  0
 25 26  1  0  0  0
 26 27  1  0  0  0
 29 28  1  0  0  0
 27 28  1  0  0  0
 13 14  1  0  0  0
  7 10  1  0  0  0
M  END
> <minimizedAffinity>
-6.60351

$$$$
6HPW_GKT_A_209


 29 32  0  0  0  0  0  0  0  0999 V2000
   -0.9540   15.8023   17.3087 C   0  0  0  0  0  0  0  0  0  0  0  0
   -0.9722   17.0549   17.9283 C   0  0  0  0  0  0  0  0  0  0  0  0
   -1.9957   17.3432   18.8209 C   0  0  0  0  0  0  0  0  0  0  0  0
   -2.9599   16.3825   19.1020 C   0  0  0  0  0  0  0  0  0  0  0  0
   -2.9422   15.1311   18.5092 C   0  0  0  0  0  0  0  0  0  0  0  0
   -1.9265   14.8466   17.6110 C   0  0  0  0  0  0  0  0  0  0  0  0
   -2.2681   18.4974   19.5400 N   0  0  0  0  0  0  0  0  0  0  0  0
   -3.3533   18.2180   20.2388 C   0  0  0  0  0  0  0  0  0  0  0  0
   -3.8153   16.9704   20.0099 N   0  0  0  0  0  0  0  0  0  0  0  0
   -1.7622   19.3419   19.5315 H   0  0  0  0  0  0  0  0  0  0  0  0
   -0.2913   15.2196   15.0102 C   0  0  0  0  0  0  0  0  0  0  0  0
   -1.4193   15.2478   14.5321 O   0  0  0  0  0  0  0  0  0  0  0  0
   -0.0315   15.5006   16.2991 N   0  0  0  0  0  0  0  0  0  0  0  0
    0.9167   15.4934   16.5637 H   0  0  0  0  0  0  0  0  0  0  0  0
    3.0045   14.2476   12.3939 C   0  0  0  0  0  0  0  0  0  0  0  0
    1.8583   13.4546   12.4787 C   0  0  0  0  0  0  0  0  0  0  0  0
    0.8201   13.7550   13.3431 C   0  0  0  0  0  0  0  0  0  0  0  0
    0.8924   14.8644   14.1710 C   0  0  0  0  0  0  0  0  0  0  0  0
    2.0324   15.6673   14.1158 C   0  0  0  0  0  0  0  0  0  0  0  0
    3.0553   15.3788   13.2153 C   0  0  0  0  0  0  0  0  0  0  0  0
    4.5788   16.8475   12.9173 I   0  0  0  0  0  0  0  0  0  0  0  0
    4.1240   13.8421   11.4738 C   0  0  0  0  0  0  0  0  0  0  0  0
   -3.9636   19.1189   21.2643 C   0  0  0  0  0  0  0  0  0  0  0  0
   -4.9392   20.0539   20.6893 N   0  0  0  0  0  0  0  0  0  0  0  0
   -6.1651   19.3291   20.2808 C   0  0  0  0  0  0  0  0  0  0  0  0
   -7.2693   20.2662   19.8337 C   0  0  0  0  0  0  0  0  0  0  0  0
   -6.7350   21.3359   18.8996 C   0  0  0  0  0  0  0  0  0  0  0  0
   -5.3639   20.9539   18.3831 C   0  0  0  0  0  0  0  0  0  0  0  0
   -4.3735   20.7577   19.5259 C   0  0  0  0  0  0  0  0  0  0  0  0
 22 15  1  0  0  0
 16 15  2  0  0  0
 16 17  1  0  0  0
 15 20  1  0  0  0
 17 18  2  0  0  0
 20 21  1  0  0  0
 20 19  2  0  0  0
 12 11  2  0  0  0
 18 19  1  0  0  0
 18 11  1  0  0  0
 11 13  1  0  0  0
 13  1  1  0  0  0
  2  1  2  0  0  0
  2  3  1  0  0  0
  1  6  1  0  0  0
  7  3  1  0  0  0
  7  8  1  0  0  0
  3  4  2  0  0  0
  6  5  2  0  0  0
  8 23  1  0  0  0
  8  9  2  0  0  0
  4  5  1  0  0  0
  4  9  1  0  0  0
 23 24  1  0  0  0
 24 25  1  0  0  0
 24 29  1  0  0  0
 25 26  1  0  0  0
 26 27  1  0  0  0
 29 28  1  0  0  0
 27 28  1  0  0  0
 13 14  1  0  0  0
  7 10  1  0  0  0
M  END
> <minimizedAffinity>
-6.59078

$$$$
6HPW_GKT_A_209


 29 32  0  0  0  0  0  0  0  0999 V2000
   -0.9027   15.0837   16.5409 C   0  0  0  0  0  0  0  0  0  0  0  0
   -0.7649   15.6139   17.8266 C   0  0  0  0  0  0  0  0  0  0  0  0
   -1.9032   15.7895   18.6017 C   0  0  0  0  0  0  0  0  0  0  0  0
   -3.1449   15.4139   18.1028 C   0  0  0  0  0  0  0  0  0  0  0  0
   -3.2924   14.8699   16.8379 C   0  0  0  0  0  0  0  0  0  0  0  0
   -2.1578   14.7036   16.0605 C   0  0  0  0  0  0  0  0  0  0  0  0
   -2.0554   16.3137   19.8767 N   0  0  0  0  0  0  0  0  0  0  0  0
   -3.3493   16.2329   20.1286 C   0  0  0  0  0  0  0  0  0  0  0  0
   -4.0502   15.7106   19.0998 N   0  0  0  0  0  0  0  0  0  0  0  0
   -1.3515   16.6689   20.4662 H   0  0  0  0  0  0  0  0  0  0  0  0
    0.1501   14.9934   14.3171 C   0  0  0  0  0  0  0  0  0  0  0  0
   -0.8862   15.0985   13.6716 O   0  0  0  0  0  0  0  0  0  0  0  0
    0.1844   15.0104   15.6611 N   0  0  0  0  0  0  0  0  0  0  0  0
    1.0769   14.9663   16.0744 H   0  0  0  0  0  0  0  0  0  0  0  0
    3.8570   14.5771   12.1404 C   0  0  0  0  0  0  0  0  0  0  0  0
    2.8531   13.6074   12.0996 C   0  0  0  0  0  0  0  0  0  0  0  0
    1.6814   13.7327   12.8253 C   0  0  0  0  0  0  0  0  0  0  0  0
    1.4701   14.8378   13.6351 C   0  0  0  0  0  0  0  0  0  0  0  0
    2.4626   15.8162   13.7044 C   0  0  0  0  0  0  0  0  0  0  0  0
    3.6219   15.7001   12.9407 C   0  0  0  0  0  0  0  0  0  0  0  0
    4.9117   17.3985   12.8033 I   0  0  0  0  0  0  0  0  0  0  0  0
    5.1322   14.3615   11.3712 C   0  0  0  0  0  0  0  0  0  0  0  0
   -3.9862   16.5675   21.4393 C   0  0  0  0  0  0  0  0  0  0  0  0
   -5.2797   17.2456   21.2847 N   0  0  0  0  0  0  0  0  0  0  0  0
   -5.0791   18.6236   20.7788 C   0  0  0  0  0  0  0  0  0  0  0  0
   -6.3868   19.3128   20.4437 C   0  0  0  0  0  0  0  0  0  0  0  0
   -7.4129   19.1042   21.5418 C   0  0  0  0  0  0  0  0  0  0  0  0
   -6.7448   18.6053   22.8056 C   0  0  0  0  0  0  0  0  0  0  0  0
   -6.0072   17.2926   22.5643 C   0  0  0  0  0  0  0  0  0  0  0  0
 22 15  1  0  0  0
 16 15  2  0  0  0
 16 17  1  0  0  0
 15 20  1  0  0  0
 17 18  2  0  0  0
 20 21  1  0  0  0
 20 19  2  0  0  0
 12 11  2  0  0  0
 18 19  1  0  0  0
 18 11  1  0  0  0
 11 13  1  0  0  0
 13  1  1  0  0  0
  2  1  2  0  0  0
  2  3  1  0  0  0
  1  6  1  0  0  0
  7  3  1  0  0  0
  7  8  1  0  0  0
  3  4  2  0  0  0
  6  5  2  0  0  0
  8 23  1  0  0  0
  8  9  2  0  0  0
  4  5  1  0  0  0
  4  9  1  0  0  0
 23 24  1  0  0  0
 24 25  1  0  0  0
 24 29  1  0  0  0
 25 26  1  0  0  0
 26 27  1  0  0  0
 29 28  1  0  0  0
 27 28  1  0  0  0
 13 14  1  0  0  0
  7 10  1  0  0  0
M  END
> <minimizedAffinity>
-6.43901

$$$$
6HPW_GKT_A_209


 29 32  0  0  0  0  0  0  0  0999 V2000
   -6.1018   14.4667   19.8127 C   0  0  0  0  0  0  0  0  0  0  0  0
   -6.9484   14.2408   18.7240 C   0  0  0  0  0  0  0  0  0  0  0  0
   -7.9979   13.3437   18.8695 C   0  0  0  0  0  0  0  0  0  0  0  0
   -8.2043   12.7122   20.0902 C   0  0  0  0  0  0  0  0  0  0  0  0
   -7.3840   12.9418   21.1821 C   0  0  0  0  0  0  0  0  0  0  0  0
   -6.3308   13.8296   21.0343 C   0  0  0  0  0  0  0  0  0  0  0  0
   -8.9536   12.9169   17.9596 N   0  0  0  0  0  0  0  0  0  0  0  0
   -9.7126   12.0701   18.6311 C   0  0  0  0  0  0  0  0  0  0  0  0
   -9.3059   11.9030   19.9075 N   0  0  0  0  0  0  0  0  0  0  0  0
   -9.0462   13.1866   17.0173 H   0  0  0  0  0  0  0  0  0  0  0  0
   -3.8972   15.0399   18.8782 C   0  0  0  0  0  0  0  0  0  0  0  0
   -3.8474   14.1183   18.0720 O   0  0  0  0  0  0  0  0  0  0  0  0
   -4.9481   15.2511   19.6899 N   0  0  0  0  0  0  0  0  0  0  0  0
   -4.9011   16.0493   20.2642 H   0  0  0  0  0  0  0  0  0  0  0  0
   -0.7256   17.9641   19.0846 C   0  0  0  0  0  0  0  0  0  0  0  0
   -0.8334   17.0510   18.0337 C   0  0  0  0  0  0  0  0  0  0  0  0
   -1.8339   16.0958   17.9908 C   0  0  0  0  0  0  0  0  0  0  0  0
   -2.7682   16.0091   19.0111 C   0  0  0  0  0  0  0  0  0  0  0  0
   -2.6763   16.9013   20.0801 C   0  0  0  0  0  0  0  0  0  0  0  0
   -1.6891   17.8840   20.0957 C   0  0  0  0  0  0  0  0  0  0  0  0
   -1.8390   19.4392   21.5537 I   0  0  0  0  0  0  0  0  0  0  0  0
    0.4145   18.9459   19.1040 C   0  0  0  0  0  0  0  0  0  0  0  0
  -10.9591   11.4363   18.1017 C   0  0  0  0  0  0  0  0  0  0  0  0
  -10.7307   10.6870   16.8594 N   0  0  0  0  0  0  0  0  0  0  0  0
  -11.4484   11.3295   15.7338 C   0  0  0  0  0  0  0  0  0  0  0  0
  -11.1154   10.6952   14.3981 C   0  0  0  0  0  0  0  0  0  0  0  0
  -11.1497    9.1809   14.4872 C   0  0  0  0  0  0  0  0  0  0  0  0
  -11.8615    8.7387   15.7484 C   0  0  0  0  0  0  0  0  0  0  0  0
  -11.1789    9.2908   16.9953 C   0  0  0  0  0  0  0  0  0  0  0  0
 22 15  1  0  0  0
 16 15  2  0  0  0
 16 17  1  0  0  0
 15 20  1  0  0  0
 17 18  2  0  0  0
 20 21  1  0  0  0
 20 19  2  0  0  0
 12 11  2  0  0  0
 18 19  1  0  0  0
 18 11  1  0  0  0
 11 13  1  0  0  0
 13  1  1  0  0  0
  2  1  2  0  0  0
  2  3  1  0  0  0
  1  6  1  0  0  0
  7  3  1  0  0  0
  7  8  1  0  0  0
  3  4  2  0  0  0
  6  5  2  0  0  0
  8 23  1  0  0  0
  8  9  2  0  0  0
  4  5  1  0  0  0
  4  9  1  0  0  0
 23 24  1  0  0  0
 24 25  1  0  0  0
 24 29  1  0  0  0
 25 26  1  0  0  0
 26 27  1  0  0  0
 29 28  1  0  0  0
 27 28  1  0  0  0
 13 14  1  0  0  0
  7 10  1  0  0  0
M  END
> <minimizedAffinity>
-6.25692

$$$$
