1W7G_MIU_H_300


 41 42  0  0  0  0  0  0  0  0999 V2000
   14.4353  -14.6302   20.4195 C   0  0  0  0  0  0  0  0  0  0  0  0
   13.0292  -15.3814   20.2460 C   0  0  0  0  0  0  0  0  0  0  0  0
   12.1326  -14.7881   19.6217 O   0  0  0  0  0  0  0  0  0  0  0  0
   12.8007  -16.6604   20.7507 N   0  0  0  0  0  0  0  0  0  0  0  0
   11.6555  -17.4924   20.3539 C   0  0  0  0  0  0  0  0  0  0  0  0
   12.1763  -18.7679   19.7917 C   0  0  0  0  0  0  0  0  0  0  0  0
   13.0575  -19.4358   20.8464 N   0  0  0  0  0  0  0  0  0  0  0  0
   14.2583  -18.5917   21.2440 C   0  0  0  0  0  0  0  0  0  0  0  0
   13.7586  -17.2516   21.7882 C   0  0  0  0  0  0  0  0  0  0  0  0
   13.9082  -20.4360   20.1936 C   0  0  0  0  0  0  0  0  0  0  0  0
   15.2670  -20.0395   19.5468 C   0  0  0  0  0  0  0  0  0  0  0  0
   15.1802  -19.6357   18.0625 C   0  0  0  0  0  0  0  0  0  0  0  0
   15.1591  -18.1650   17.9471 N   0  0  0  0  0  0  0  0  0  0  0  0
   14.3480  -17.7966   18.4438 H   0  0  0  0  0  0  0  0  0  0  0  0
   15.1035  -17.9020   16.9631 H   0  0  0  0  0  0  0  0  0  0  0  0
   15.4941  -15.2403   19.5718 N   0  0  0  0  0  0  0  0  0  0  0  0
   15.1152  -16.1016   19.1782 H   0  0  0  0  0  0  0  0  0  0  0  0
   16.9970  -15.6360   20.3515 S   0  0  0  0  0  0  0  0  0  0  0  0
   16.7946  -15.4476   21.9094 O   0  0  0  0  0  0  0  0  0  0  0  0
   17.2310  -17.1772   20.0513 O   0  0  0  0  0  0  0  0  0  0  0  0
   18.3468  -14.6910   19.7658 C   0  0  0  0  0  0  0  0  0  0  0  0
   19.2663  -14.1115   20.6783 C   0  0  0  0  0  0  0  0  0  0  0  0
   20.3582  -13.3528   20.1738 C   0  0  0  0  0  0  0  0  0  0  0  0
   20.5191  -13.1769   18.7710 C   0  0  0  0  0  0  0  0  0  0  0  0
   19.5864  -13.7634   17.8500 C   0  0  0  0  0  0  0  0  0  0  0  0
   18.4963  -14.5200   18.3694 C   0  0  0  0  0  0  0  0  0  0  0  0
   19.7768  -13.5681   16.3190 C   0  0  0  0  0  0  0  0  0  0  0  0
   20.8278  -14.3027   15.8646 F   0  0  0  0  0  0  0  0  0  0  0  0
   18.6526  -13.9646   15.6520 F   0  0  0  0  0  0  0  0  0  0  0  0
   20.0077  -12.2590   16.0212 F   0  0  0  0  0  0  0  0  0  0  0  0
   14.5172  -13.1176   20.0365 C   0  0  0  0  0  0  0  0  0  0  0  0
   14.8552  -12.0738   21.1300 C   0  0  0  0  0  0  0  0  0  0  0  0
   13.5562  -11.3799   21.5431 C   0  0  0  0  0  0  0  0  0  0  0  0
   12.9603  -11.8354   22.8216 N   0  0  0  0  0  0  0  0  0  0  0  0
   11.6971  -12.2256   22.9669 C   0  0  0  0  0  0  0  0  0  0  0  0
   10.9377  -11.5840   23.8109 N   0  0  0  0  0  0  0  0  0  0  0  0
   11.1418  -13.2192   22.3284 N   0  0  0  0  0  0  0  0  0  0  0  0
   11.3014  -10.8252   24.3219 H   0  0  0  0  0  0  0  0  0  0  0  0
   10.0007  -11.8586   23.9372 H   0  0  0  0  0  0  0  0  0  0  0  0
   11.6658  -13.7409   21.6783 H   0  0  0  0  0  0  0  0  0  0  0  0
   10.1990  -13.4472   22.4969 H   0  0  0  0  0  0  0  0  0  0  0  0
 21 18  1  0  0  0
 21 22  2  0  0  0
 21 26  1  0  0  0
 18 16  1  0  0  0
 18 19  2  0  0  0
 18 20  2  0  0  0
 16  1  1  0  0  0
  1  2  1  0  0  0
  1 31  1  0  0  0
 22 23  1  0  0  0
 23 24  2  0  0  0
 24 25  1  0  0  0
 25 27  1  0  0  0
 25 26  2  0  0  0
 27 28  1  0  0  0
 27 29  1  0  0  0
 27 30  1  0  0  0
  2  3  2  0  0  0
  2  4  1  0  0  0
  4  5  1  0  0  0
  4  9  1  0  0  0
  5  6  1  0  0  0
  6  7  1  0  0  0
  7  8  1  0  0  0
  7 10  1  0  0  0
  8  9  1  0  0  0
 10 11  1  0  0  0
 31 32  1  0  0  0
 32 33  1  0  0  0
 33 34  1  0  0  0
 34 35  2  0  0  0
 35 37  1  0  0  0
 35 36  1  0  0  0
 11 12  1  0  0  0
 12 13  1  0  0  0
 16 17  1  0  0  0
 36 38  1  0  0  0
 36 39  1  0  0  0
 37 40  1  0  0  0
 37 41  1  0  0  0
 13 14  1  0  0  0
 13 15  1  0  0  0
M  END
> <minimizedAffinity>
-8.49354

$$$$
1W7G_MIU_H_300


 41 42  0  0  0  0  0  0  0  0999 V2000
   16.5277  -13.9146   19.7864 C   0  0  0  0  0  0  0  0  0  0  0  0
   15.1333  -14.6998   19.8881 C   0  0  0  0  0  0  0  0  0  0  0  0
   15.1658  -15.9412   19.8284 O   0  0  0  0  0  0  0  0  0  0  0  0
   13.9172  -14.0397   20.0564 N   0  0  0  0  0  0  0  0  0  0  0  0
   12.6776  -14.7206   20.4576 C   0  0  0  0  0  0  0  0  0  0  0  0
   12.1826  -14.0908   21.7116 C   0  0  0  0  0  0  0  0  0  0  0  0
   11.9831  -12.5976   21.4554 N   0  0  0  0  0  0  0  0  0  0  0  0
   13.2662  -11.8813   21.0641 C   0  0  0  0  0  0  0  0  0  0  0  0
   13.8267  -12.5335   19.7983 C   0  0  0  0  0  0  0  0  0  0  0  0
   11.9202  -11.8970   22.7420 C   0  0  0  0  0  0  0  0  0  0  0  0
   12.4820  -10.4545   22.9023 C   0  0  0  0  0  0  0  0  0  0  0  0
   12.0717   -9.7449   24.2068 C   0  0  0  0  0  0  0  0  0  0  0  0
   13.1345   -8.8087   24.6198 N   0  0  0  0  0  0  0  0  0  0  0  0
   14.0004   -9.3247   24.7757 H   0  0  0  0  0  0  0  0  0  0  0  0
   12.8582   -8.3397   25.4825 H   0  0  0  0  0  0  0  0  0  0  0  0
   17.6703  -14.7623   20.2199 N   0  0  0  0  0  0  0  0  0  0  0  0
   17.2886  -15.5464   20.7489 H   0  0  0  0  0  0  0  0  0  0  0  0
   18.8838  -14.0039   21.2074 S   0  0  0  0  0  0  0  0  0  0  0  0
   20.2667  -14.1257   20.4481 O   0  0  0  0  0  0  0  0  0  0  0  0
   18.4725  -12.4720   21.2731 O   0  0  0  0  0  0  0  0  0  0  0  0
   18.9805  -14.6769   22.8186 C   0  0  0  0  0  0  0  0  0  0  0  0
   17.9763  -15.5633   23.2872 C   0  0  0  0  0  0  0  0  0  0  0  0
   18.0835  -16.1002   24.5996 C   0  0  0  0  0  0  0  0  0  0  0  0
   19.1838  -15.7460   25.4294 C   0  0  0  0  0  0  0  0  0  0  0  0
   20.1980  -14.8478   24.9531 C   0  0  0  0  0  0  0  0  0  0  0  0
   20.0772  -14.3163   23.6364 C   0  0  0  0  0  0  0  0  0  0  0  0
   21.3982  -14.4731   25.8681 C   0  0  0  0  0  0  0  0  0  0  0  0
   21.8639  -15.5681   26.5277 F   0  0  0  0  0  0  0  0  0  0  0  0
   22.4161  -13.9555   25.1185 F   0  0  0  0  0  0  0  0  0  0  0  0
   21.0331  -13.5396   26.7906 F   0  0  0  0  0  0  0  0  0  0  0  0
   16.9893  -13.4071   18.3825 C   0  0  0  0  0  0  0  0  0  0  0  0
   18.0008  -14.2484   17.5648 C   0  0  0  0  0  0  0  0  0  0  0  0
   18.6847  -13.3228   16.5573 C   0  0  0  0  0  0  0  0  0  0  0  0
   17.8051  -12.7414   15.5155 N   0  0  0  0  0  0  0  0  0  0  0  0
   17.3407  -11.4952   15.5317 C   0  0  0  0  0  0  0  0  0  0  0  0
   16.0499  -11.3090   15.5357 N   0  0  0  0  0  0  0  0  0  0  0  0
   18.0805  -10.4201   15.5386 N   0  0  0  0  0  0  0  0  0  0  0  0
   15.4410  -12.0826   15.5309 H   0  0  0  0  0  0  0  0  0  0  0  0
   15.6844  -10.3949   15.5436 H   0  0  0  0  0  0  0  0  0  0  0  0
   19.0619  -10.4978   15.5361 H   0  0  0  0  0  0  0  0  0  0  0  0
   17.6571   -9.5313   15.5464 H   0  0  0  0  0  0  0  0  0  0  0  0
 21 18  1  0  0  0
 21 22  2  0  0  0
 21 26  1  0  0  0
 18 16  1  0  0  0
 18 19  2  0  0  0
 18 20  2  0  0  0
 16  1  1  0  0  0
  1  2  1  0  0  0
  1 31  1  0  0  0
 22 23  1  0  0  0
 23 24  2  0  0  0
 24 25  1  0  0  0
 25 27  1  0  0  0
 25 26  2  0  0  0
 27 28  1  0  0  0
 27 29  1  0  0  0
 27 30  1  0  0  0
  2  3  2  0  0  0
  2  4  1  0  0  0
  4  5  1  0  0  0
  4  9  1  0  0  0
  5  6  1  0  0  0
  6  7  1  0  0  0
  7  8  1  0  0  0
  7 10  1  0  0  0
  8  9  1  0  0  0
 10 11  1  0  0  0
 31 32  1  0  0  0
 32 33  1  0  0  0
 33 34  1  0  0  0
 34 35  2  0  0  0
 35 37  1  0  0  0
 35 36  1  0  0  0
 11 12  1  0  0  0
 12 13  1  0  0  0
 16 17  1  0  0  0
 36 38  1  0  0  0
 36 39  1  0  0  0
 37 40  1  0  0  0
 37 41  1  0  0  0
 13 14  1  0  0  0
 13 15  1  0  0  0
M  END
> <minimizedAffinity>
-8.34594

$$$$
1W7G_MIU_H_300


 41 42  0  0  0  0  0  0  0  0999 V2000
   14.5109  -15.7988   20.7196 C   0  0  0  0  0  0  0  0  0  0  0  0
   14.9721  -17.2730   20.2889 C   0  0  0  0  0  0  0  0  0  0  0  0
   14.6288  -17.6783   19.1648 O   0  0  0  0  0  0  0  0  0  0  0  0
   15.7458  -18.0834   21.1179 N   0  0  0  0  0  0  0  0  0  0  0  0
   16.4371  -19.2928   20.6481 C   0  0  0  0  0  0  0  0  0  0  0  0
   17.8910  -19.1381   20.9247 C   0  0  0  0  0  0  0  0  0  0  0  0
   18.0740  -18.8940   22.4220 N   0  0  0  0  0  0  0  0  0  0  0  0
   17.3823  -17.6310   22.9109 C   0  0  0  0  0  0  0  0  0  0  0  0
   15.8873  -17.7386   22.6027 C   0  0  0  0  0  0  0  0  0  0  0  0
   19.4036  -18.3205   22.6530 C   0  0  0  0  0  0  0  0  0  0  0  0
   19.5759  -16.8396   23.0994 C   0  0  0  0  0  0  0  0  0  0  0  0
   21.0092  -16.4544   23.5130 C   0  0  0  0  0  0  0  0  0  0  0  0
   21.3563  -15.1398   22.9403 N   0  0  0  0  0  0  0  0  0  0  0  0
   21.3011  -15.1869   21.9229 H   0  0  0  0  0  0  0  0  0  0  0  0
   22.3048  -14.8877   23.2180 H   0  0  0  0  0  0  0  0  0  0  0  0
   14.6918  -14.8200   19.6146 N   0  0  0  0  0  0  0  0  0  0  0  0
   14.9338  -15.3453   18.7744 H   0  0  0  0  0  0  0  0  0  0  0  0
   15.9071  -13.5966   19.8369 S   0  0  0  0  0  0  0  0  0  0  0  0
   15.4505  -12.3133   19.0316 O   0  0  0  0  0  0  0  0  0  0  0  0
   15.8827  -13.2595   21.3880 O   0  0  0  0  0  0  0  0  0  0  0  0
   17.5051  -14.1168   19.3531 C   0  0  0  0  0  0  0  0  0  0  0  0
   18.1401  -15.1970   20.0192 C   0  0  0  0  0  0  0  0  0  0  0  0
   19.4373  -15.6026   19.6010 C   0  0  0  0  0  0  0  0  0  0  0  0
   20.0871  -14.9272   18.5304 C   0  0  0  0  0  0  0  0  0  0  0  0
   19.4427  -13.8336   17.8589 C   0  0  0  0  0  0  0  0  0  0  0  0
   18.1435  -13.4369   18.2893 C   0  0  0  0  0  0  0  0  0  0  0  0
   20.1617  -13.1074   16.6867 C   0  0  0  0  0  0  0  0  0  0  0  0
   19.2966  -12.3017   16.0135 F   0  0  0  0  0  0  0  0  0  0  0  0
   21.1830  -12.3380   17.1672 F   0  0  0  0  0  0  0  0  0  0  0  0
   20.6849  -14.0057   15.8064 F   0  0  0  0  0  0  0  0  0  0  0  0
   13.0190  -15.5818   21.1303 C   0  0  0  0  0  0  0  0  0  0  0  0
   12.6576  -14.4302   22.1012 C   0  0  0  0  0  0  0  0  0  0  0  0
   12.0455  -13.2923   21.2827 C   0  0  0  0  0  0  0  0  0  0  0  0
   12.4214  -11.9213   21.7026 N   0  0  0  0  0  0  0  0  0  0  0  0
   13.1130  -11.0673   20.9534 C   0  0  0  0  0  0  0  0  0  0  0  0
   14.2480  -10.6138   21.4082 N   0  0  0  0  0  0  0  0  0  0  0  0
   12.7437  -10.6307   19.7803 N   0  0  0  0  0  0  0  0  0  0  0  0
   14.5785  -10.9075   22.2878 H   0  0  0  0  0  0  0  0  0  0  0  0
   14.7743   -9.9776   20.8719 H   0  0  0  0  0  0  0  0  0  0  0  0
   11.8959  -10.9379   19.3852 H   0  0  0  0  0  0  0  0  0  0  0  0
   13.3129   -9.9941   19.2904 H   0  0  0  0  0  0  0  0  0  0  0  0
 21 18  1  0  0  0
 21 22  2  0  0  0
 21 26  1  0  0  0
 18 16  1  0  0  0
 18 19  2  0  0  0
 18 20  2  0  0  0
 16  1  1  0  0  0
  1  2  1  0  0  0
  1 31  1  0  0  0
 22 23  1  0  0  0
 23 24  2  0  0  0
 24 25  1  0  0  0
 25 27  1  0  0  0
 25 26  2  0  0  0
 27 28  1  0  0  0
 27 29  1  0  0  0
 27 30  1  0  0  0
  2  3  2  0  0  0
  2  4  1  0  0  0
  4  5  1  0  0  0
  4  9  1  0  0  0
  5  6  1  0  0  0
  6  7  1  0  0  0
  7  8  1  0  0  0
  7 10  1  0  0  0
  8  9  1  0  0  0
 10 11  1  0  0  0
 31 32  1  0  0  0
 32 33  1  0  0  0
 33 34  1  0  0  0
 34 35  2  0  0  0
 35 37  1  0  0  0
 35 36  1  0  0  0
 11 12  1  0  0  0
 12 13  1  0  0  0
 16 17  1  0  0  0
 36 38  1  0  0  0
 36 39  1  0  0  0
 37 40  1  0  0  0
 37 41  1  0  0  0
 13 14  1  0  0  0
 13 15  1  0  0  0
M  END
> <minimizedAffinity>
-8.02767

$$$$
1W7G_MIU_H_300


 41 42  0  0  0  0  0  0  0  0999 V2000
   13.8892  -15.1181   20.4627 C   0  0  0  0  0  0  0  0  0  0  0  0
   13.8081  -16.6888   20.1505 C   0  0  0  0  0  0  0  0  0  0  0  0
   12.9940  -17.0632   19.2887 O   0  0  0  0  0  0  0  0  0  0  0  0
   14.6224  -17.6193   20.7940 N   0  0  0  0  0  0  0  0  0  0  0  0
   14.7953  -19.0018   20.3251 C   0  0  0  0  0  0  0  0  0  0  0  0
   16.2431  -19.2318   20.0700 C   0  0  0  0  0  0  0  0  0  0  0  0
   17.0120  -18.9417   21.3583 N   0  0  0  0  0  0  0  0  0  0  0  0
   16.8581  -17.5063   21.8362 C   0  0  0  0  0  0  0  0  0  0  0  0
   15.3724  -17.2220   22.0679 C   0  0  0  0  0  0  0  0  0  0  0  0
   18.4276  -18.7393   21.0338 C   0  0  0  0  0  0  0  0  0  0  0  0
   19.1714  -17.4371   21.4497 C   0  0  0  0  0  0  0  0  0  0  0  0
   20.4337  -17.6613   22.3041 C   0  0  0  0  0  0  0  0  0  0  0  0
   20.9970  -16.3599   22.7112 N   0  0  0  0  0  0  0  0  0  0  0  0
   21.2442  -15.8217   21.8808 H   0  0  0  0  0  0  0  0  0  0  0  0
   21.8311  -16.5129   23.2780 H   0  0  0  0  0  0  0  0  0  0  0  0
   14.9339  -14.4468   19.6441 N   0  0  0  0  0  0  0  0  0  0  0  0
   15.5082  -15.1754   19.2201 H   0  0  0  0  0  0  0  0  0  0  0  0
   16.0014  -13.3524   20.4723 S   0  0  0  0  0  0  0  0  0  0  0  0
   15.4360  -11.8878   20.2752 O   0  0  0  0  0  0  0  0  0  0  0  0
   15.8882  -13.7393   22.0078 O   0  0  0  0  0  0  0  0  0  0  0  0
   17.6617  -13.4716   19.9363 C   0  0  0  0  0  0  0  0  0  0  0  0
   18.7147  -13.5779   20.8816 C   0  0  0  0  0  0  0  0  0  0  0  0
   20.0551  -13.6793   20.4174 C   0  0  0  0  0  0  0  0  0  0  0  0
   20.3309  -13.6694   19.0215 C   0  0  0  0  0  0  0  0  0  0  0  0
   19.2635  -13.5604   18.0671 C   0  0  0  0  0  0  0  0  0  0  0  0
   17.9254  -13.4582   18.5465 C   0  0  0  0  0  0  0  0  0  0  0  0
   19.5782  -13.5562   16.5443 C   0  0  0  0  0  0  0  0  0  0  0  0
   20.6370  -14.3642   16.2669 F   0  0  0  0  0  0  0  0  0  0  0  0
   18.4969  -14.0049   15.8404 F   0  0  0  0  0  0  0  0  0  0  0  0
   19.8735  -12.2984   16.1125 F   0  0  0  0  0  0  0  0  0  0  0  0
   12.6235  -14.2438   20.1889 C   0  0  0  0  0  0  0  0  0  0  0  0
   11.8426  -13.6417   21.3835 C   0  0  0  0  0  0  0  0  0  0  0  0
   12.2431  -12.1720   21.5215 C   0  0  0  0  0  0  0  0  0  0  0  0
   12.4742  -11.6938   22.9053 N   0  0  0  0  0  0  0  0  0  0  0  0
   11.5215  -11.5542   23.8228 C   0  0  0  0  0  0  0  0  0  0  0  0
   11.3234  -10.3754   24.3441 N   0  0  0  0  0  0  0  0  0  0  0  0
   10.7553  -12.5163   24.2595 N   0  0  0  0  0  0  0  0  0  0  0  0
   11.8711   -9.6105   24.0540 H   0  0  0  0  0  0  0  0  0  0  0  0
   10.6261  -10.2503   25.0278 H   0  0  0  0  0  0  0  0  0  0  0  0
   10.8584  -13.4281   23.9028 H   0  0  0  0  0  0  0  0  0  0  0  0
   10.0742  -12.3302   24.9456 H   0  0  0  0  0  0  0  0  0  0  0  0
 21 18  1  0  0  0
 21 22  2  0  0  0
 21 26  1  0  0  0
 18 16  1  0  0  0
 18 19  2  0  0  0
 18 20  2  0  0  0
 16  1  1  0  0  0
  1  2  1  0  0  0
  1 31  1  0  0  0
 22 23  1  0  0  0
 23 24  2  0  0  0
 24 25  1  0  0  0
 25 27  1  0  0  0
 25 26  2  0  0  0
 27 28  1  0  0  0
 27 29  1  0  0  0
 27 30  1  0  0  0
  2  3  2  0  0  0
  2  4  1  0  0  0
  4  5  1  0  0  0
  4  9  1  0  0  0
  5  6  1  0  0  0
  6  7  1  0  0  0
  7  8  1  0  0  0
  7 10  1  0  0  0
  8  9  1  0  0  0
 10 11  1  0  0  0
 31 32  1  0  0  0
 32 33  1  0  0  0
 33 34  1  0  0  0
 34 35  2  0  0  0
 35 37  1  0  0  0
 35 36  1  0  0  0
 11 12  1  0  0  0
 12 13  1  0  0  0
 16 17  1  0  0  0
 36 38  1  0  0  0
 36 39  1  0  0  0
 37 40  1  0  0  0
 37 41  1  0  0  0
 13 14  1  0  0  0
 13 15  1  0  0  0
M  END
> <minimizedAffinity>
-7.98080

$$$$
1W7G_MIU_H_300


 41 42  0  0  0  0  0  0  0  0999 V2000
   14.5258  -14.7759   20.5714 C   0  0  0  0  0  0  0  0  0  0  0  0
   15.6652  -13.8039   21.1444 C   0  0  0  0  0  0  0  0  0  0  0  0
   15.6679  -13.5780   22.3670 O   0  0  0  0  0  0  0  0  0  0  0  0
   16.6398  -13.2351   20.3262 N   0  0  0  0  0  0  0  0  0  0  0  0
   17.8609  -12.6021   20.8453 C   0  0  0  0  0  0  0  0  0  0  0  0
   19.0361  -13.3006   20.2578 C   0  0  0  0  0  0  0  0  0  0  0  0
   18.9303  -13.2258   18.7352 N   0  0  0  0  0  0  0  0  0  0  0  0
   17.6818  -13.9004   18.1887 C   0  0  0  0  0  0  0  0  0  0  0  0
   16.4516  -13.2327   18.8071 C   0  0  0  0  0  0  0  0  0  0  0  0
   19.8049  -14.2444   18.1455 C   0  0  0  0  0  0  0  0  0  0  0  0
   20.2146  -14.1840   16.6453 C   0  0  0  0  0  0  0  0  0  0  0  0
   20.6934  -12.8011   16.1637 C   0  0  0  0  0  0  0  0  0  0  0  0
   19.5288  -11.9618   15.8231 N   0  0  0  0  0  0  0  0  0  0  0  0
   18.9927  -12.4097   15.0799 H   0  0  0  0  0  0  0  0  0  0  0  0
   19.8500  -11.0469   15.5067 H   0  0  0  0  0  0  0  0  0  0  0  0
   14.1551  -15.8293   21.5536 N   0  0  0  0  0  0  0  0  0  0  0  0
   14.2436  -15.4257   22.4861 H   0  0  0  0  0  0  0  0  0  0  0  0
   15.0884  -17.2961   21.5257 S   0  0  0  0  0  0  0  0  0  0  0  0
   14.5200  -18.2492   22.6535 O   0  0  0  0  0  0  0  0  0  0  0  0
   14.7953  -17.9517   20.1099 O   0  0  0  0  0  0  0  0  0  0  0  0
   16.8043  -17.0249   21.7263 C   0  0  0  0  0  0  0  0  0  0  0  0
   17.6826  -17.1359   20.6172 C   0  0  0  0  0  0  0  0  0  0  0  0
   19.0726  -16.9043   20.8082 C   0  0  0  0  0  0  0  0  0  0  0  0
   19.5711  -16.5699   22.0982 C   0  0  0  0  0  0  0  0  0  0  0  0
   18.6803  -16.4594   23.2191 C   0  0  0  0  0  0  0  0  0  0  0  0
   17.2901  -16.6955   23.0136 C   0  0  0  0  0  0  0  0  0  0  0  0
   19.2374  -16.0879   24.6226 C   0  0  0  0  0  0  0  0  0  0  0  0
   18.9940  -14.7804   24.9091 F   0  0  0  0  0  0  0  0  0  0  0  0
   18.6433  -16.8578   25.5820 F   0  0  0  0  0  0  0  0  0  0  0  0
   20.5820  -16.2973   24.6828 F   0  0  0  0  0  0  0  0  0  0  0  0
   13.1426  -14.1529   20.1969 C   0  0  0  0  0  0  0  0  0  0  0  0
   12.1860  -13.6923   21.3248 C   0  0  0  0  0  0  0  0  0  0  0  0
   12.3732  -12.1872   21.5224 C   0  0  0  0  0  0  0  0  0  0  0  0
   12.4998  -11.7321   22.9274 N   0  0  0  0  0  0  0  0  0  0  0  0
   11.4861  -11.6406   23.7835 C   0  0  0  0  0  0  0  0  0  0  0  0
   11.2184  -10.4796   24.3137 N   0  0  0  0  0  0  0  0  0  0  0  0
   10.7236  -12.6341   24.1506 N   0  0  0  0  0  0  0  0  0  0  0  0
   11.7596   -9.6927   24.0748 H   0  0  0  0  0  0  0  0  0  0  0  0
   10.4750  -10.3900   24.9529 H   0  0  0  0  0  0  0  0  0  0  0  0
   10.8777  -13.5346   23.7837 H   0  0  0  0  0  0  0  0  0  0  0  0
    9.9943  -12.4831   24.7945 H   0  0  0  0  0  0  0  0  0  0  0  0
 21 18  1  0  0  0
 21 22  2  0  0  0
 21 26  1  0  0  0
 18 16  1  0  0  0
 18 19  2  0  0  0
 18 20  2  0  0  0
 16  1  1  0  0  0
  1  2  1  0  0  0
  1 31  1  0  0  0
 22 23  1  0  0  0
 23 24  2  0  0  0
 24 25  1  0  0  0
 25 27  1  0  0  0
 25 26  2  0  0  0
 27 28  1  0  0  0
 27 29  1  0  0  0
 27 30  1  0  0  0
  2  3  2  0  0  0
  2  4  1  0  0  0
  4  5  1  0  0  0
  4  9  1  0  0  0
  5  6  1  0  0  0
  6  7  1  0  0  0
  7  8  1  0  0  0
  7 10  1  0  0  0
  8  9  1  0  0  0
 10 11  1  0  0  0
 31 32  1  0  0  0
 32 33  1  0  0  0
 33 34  1  0  0  0
 34 35  2  0  0  0
 35 37  1  0  0  0
 35 36  1  0  0  0
 11 12  1  0  0  0
 12 13  1  0  0  0
 16 17  1  0  0  0
 36 38  1  0  0  0
 36 39  1  0  0  0
 37 40  1  0  0  0
 37 41  1  0  0  0
 13 14  1  0  0  0
 13 15  1  0  0  0
M  END
> <minimizedAffinity>
-7.96572

$$$$
1W7G_MIU_H_300


 41 42  0  0  0  0  0  0  0  0999 V2000
   17.5234  -14.3448   20.8078 C   0  0  0  0  0  0  0  0  0  0  0  0
   16.3745  -14.1715   19.7027 C   0  0  0  0  0  0  0  0  0  0  0  0
   16.3422  -14.9949   18.7717 O   0  0  0  0  0  0  0  0  0  0  0  0
   15.4233  -13.1549   19.7701 N   0  0  0  0  0  0  0  0  0  0  0  0
   14.1925  -13.1461   18.9662 C   0  0  0  0  0  0  0  0  0  0  0  0
   13.0292  -13.0873   19.8921 C   0  0  0  0  0  0  0  0  0  0  0  0
   13.1734  -11.8448   20.7698 N   0  0  0  0  0  0  0  0  0  0  0  0
   14.4320  -11.8582   21.6231 C   0  0  0  0  0  0  0  0  0  0  0  0
   15.6494  -11.9615   20.7017 C   0  0  0  0  0  0  0  0  0  0  0  0
   12.3092  -11.9883   21.9457 C   0  0  0  0  0  0  0  0  0  0  0  0
   12.4104  -11.0019   23.1452 C   0  0  0  0  0  0  0  0  0  0  0  0
   11.3221  -11.1822   24.2207 C   0  0  0  0  0  0  0  0  0  0  0  0
   10.7914  -12.5578   24.1664 N   0  0  0  0  0  0  0  0  0  0  0  0
   10.3866  -12.7299   23.2462 H   0  0  0  0  0  0  0  0  0  0  0  0
   10.0729  -12.6734   24.8810 H   0  0  0  0  0  0  0  0  0  0  0  0
   18.2432  -15.6374   20.6562 N   0  0  0  0  0  0  0  0  0  0  0  0
   17.7667  -16.1719   19.9299 H   0  0  0  0  0  0  0  0  0  0  0  0
   18.3519  -16.6488   22.0663 S   0  0  0  0  0  0  0  0  0  0  0  0
   16.8946  -16.7981   22.6644 O   0  0  0  0  0  0  0  0  0  0  0  0
   18.8295  -18.0646   21.5300 O   0  0  0  0  0  0  0  0  0  0  0  0
   19.4728  -16.0430   23.2641 C   0  0  0  0  0  0  0  0  0  0  0  0
   19.0779  -15.0179   24.1624 C   0  0  0  0  0  0  0  0  0  0  0  0
   20.0081  -14.5484   25.1302 C   0  0  0  0  0  0  0  0  0  0  0  0
   21.3183  -15.1004   25.1893 C   0  0  0  0  0  0  0  0  0  0  0  0
   21.7157  -16.1368   24.2782 C   0  0  0  0  0  0  0  0  0  0  0  0
   20.7738  -16.5967   23.3128 C   0  0  0  0  0  0  0  0  0  0  0  0
   23.1487  -16.7353   24.3571 C   0  0  0  0  0  0  0  0  0  0  0  0
   23.2804  -17.7889   23.5065 F   0  0  0  0  0  0  0  0  0  0  0  0
   24.0722  -15.7880   24.0169 F   0  0  0  0  0  0  0  0  0  0  0  0
   23.4270  -17.1654   25.6193 F   0  0  0  0  0  0  0  0  0  0  0  0
   18.6881  -13.3034   20.8326 C   0  0  0  0  0  0  0  0  0  0  0  0
   20.1254  -13.7619   20.4813 C   0  0  0  0  0  0  0  0  0  0  0  0
   20.3832  -13.4336   19.0099 C   0  0  0  0  0  0  0  0  0  0  0  0
   19.6311  -14.2481   18.0260 N   0  0  0  0  0  0  0  0  0  0  0  0
   19.2975  -13.8367   16.8060 C   0  0  0  0  0  0  0  0  0  0  0  0
   18.0348  -13.8007   16.4817 N   0  0  0  0  0  0  0  0  0  0  0  0
   20.1425  -13.4633   15.8841 N   0  0  0  0  0  0  0  0  0  0  0  0
   17.3507  -14.0709   17.1361 H   0  0  0  0  0  0  0  0  0  0  0  0
   17.7658  -13.5033   15.5826 H   0  0  0  0  0  0  0  0  0  0  0  0
   21.1091  -13.4694   16.0709 H   0  0  0  0  0  0  0  0  0  0  0  0
   19.8134  -13.1756   15.0020 H   0  0  0  0  0  0  0  0  0  0  0  0
 21 18  1  0  0  0
 21 22  2  0  0  0
 21 26  1  0  0  0
 18 16  1  0  0  0
 18 19  2  0  0  0
 18 20  2  0  0  0
 16  1  1  0  0  0
  1  2  1  0  0  0
  1 31  1  0  0  0
 22 23  1  0  0  0
 23 24  2  0  0  0
 24 25  1  0  0  0
 25 27  1  0  0  0
 25 26  2  0  0  0
 27 28  1  0  0  0
 27 29  1  0  0  0
 27 30  1  0  0  0
  2  3  2  0  0  0
  2  4  1  0  0  0
  4  5  1  0  0  0
  4  9  1  0  0  0
  5  6  1  0  0  0
  6  7  1  0  0  0
  7  8  1  0  0  0
  7 10  1  0  0  0
  8  9  1  0  0  0
 10 11  1  0  0  0
 31 32  1  0  0  0
 32 33  1  0  0  0
 33 34  1  0  0  0
 34 35  2  0  0  0
 35 37  1  0  0  0
 35 36  1  0  0  0
 11 12  1  0  0  0
 12 13  1  0  0  0
 16 17  1  0  0  0
 36 38  1  0  0  0
 36 39  1  0  0  0
 37 40  1  0  0  0
 37 41  1  0  0  0
 13 14  1  0  0  0
 13 15  1  0  0  0
M  END
> <minimizedAffinity>
-7.54943

$$$$
1W7G_MIU_H_300


 41 42  0  0  0  0  0  0  0  0999 V2000
   14.5415  -14.9509   20.6902 C   0  0  0  0  0  0  0  0  0  0  0  0
   13.1302  -15.5050   20.1681 C   0  0  0  0  0  0  0  0  0  0  0  0
   12.3652  -14.6983   19.6116 O   0  0  0  0  0  0  0  0  0  0  0  0
   12.7581  -16.8414   20.3041 N   0  0  0  0  0  0  0  0  0  0  0  0
   11.6306  -17.4435   19.5780 C   0  0  0  0  0  0  0  0  0  0  0  0
   12.1462  -18.5878   18.7787 C   0  0  0  0  0  0  0  0  0  0  0  0
   12.8324  -19.5691   19.7281 N   0  0  0  0  0  0  0  0  0  0  0  0
   14.0155  -18.9605   20.4646 C   0  0  0  0  0  0  0  0  0  0  0  0
   13.5269  -17.7515   21.2653 C   0  0  0  0  0  0  0  0  0  0  0  0
   13.7032  -20.4560   18.9501 C   0  0  0  0  0  0  0  0  0  0  0  0
   15.0742  -19.9625   18.4034 C   0  0  0  0  0  0  0  0  0  0  0  0
   15.1365  -19.8008   16.8726 C   0  0  0  0  0  0  0  0  0  0  0  0
   14.9695  -18.3792   16.5149 N   0  0  0  0  0  0  0  0  0  0  0  0
   14.0654  -18.0478   16.8515 H   0  0  0  0  0  0  0  0  0  0  0  0
   15.0132  -18.2763   15.5010 H   0  0  0  0  0  0  0  0  0  0  0  0
   15.3639  -14.4036   19.5784 N   0  0  0  0  0  0  0  0  0  0  0  0
   14.7607  -14.3235   18.7598 H   0  0  0  0  0  0  0  0  0  0  0  0
   16.7655  -15.3196   19.1102 S   0  0  0  0  0  0  0  0  0  0  0  0
   16.5280  -16.8208   19.5506 O   0  0  0  0  0  0  0  0  0  0  0  0
   16.7979  -15.2536   17.5243 O   0  0  0  0  0  0  0  0  0  0  0  0
   18.2548  -14.6889   19.7752 C   0  0  0  0  0  0  0  0  0  0  0  0
   19.0519  -13.7883   19.0221 C   0  0  0  0  0  0  0  0  0  0  0  0
   20.2552  -13.2865   19.5902 C   0  0  0  0  0  0  0  0  0  0  0  0
   20.6517  -13.6894   20.8959 C   0  0  0  0  0  0  0  0  0  0  0  0
   19.8438  -14.6018   21.6554 C   0  0  0  0  0  0  0  0  0  0  0  0
   18.6413  -15.0977   21.0733 C   0  0  0  0  0  0  0  0  0  0  0  0
   20.2859  -15.0298   23.0835 C   0  0  0  0  0  0  0  0  0  0  0  0
   20.0864  -16.3622   23.2726 F   0  0  0  0  0  0  0  0  0  0  0  0
   21.6132  -14.7623   23.2637 F   0  0  0  0  0  0  0  0  0  0  0  0
   19.5834  -14.3517   24.0334 F   0  0  0  0  0  0  0  0  0  0  0  0
   14.5388  -13.7799   21.7247 C   0  0  0  0  0  0  0  0  0  0  0  0
   14.3924  -12.3220   21.2223 C   0  0  0  0  0  0  0  0  0  0  0  0
   12.9772  -11.8449   21.5525 C   0  0  0  0  0  0  0  0  0  0  0  0
   12.6932  -11.6141   22.9889 N   0  0  0  0  0  0  0  0  0  0  0  0
   11.5009  -11.7748   23.5561 C   0  0  0  0  0  0  0  0  0  0  0  0
   10.9458  -10.7521   24.1449 N   0  0  0  0  0  0  0  0  0  0  0  0
   10.8269  -12.8921   23.5795 N   0  0  0  0  0  0  0  0  0  0  0  0
   11.4071   -9.8825   24.1596 H   0  0  0  0  0  0  0  0  0  0  0  0
   10.0654  -10.8497   24.5746 H   0  0  0  0  0  0  0  0  0  0  0  0
   11.1955  -13.6983   23.1513 H   0  0  0  0  0  0  0  0  0  0  0  0
    9.9500  -12.9287   24.0254 H   0  0  0  0  0  0  0  0  0  0  0  0
 21 18  1  0  0  0
 21 22  2  0  0  0
 21 26  1  0  0  0
 18 16  1  0  0  0
 18 19  2  0  0  0
 18 20  2  0  0  0
 16  1  1  0  0  0
  1  2  1  0  0  0
  1 31  1  0  0  0
 22 23  1  0  0  0
 23 24  2  0  0  0
 24 25  1  0  0  0
 25 27  1  0  0  0
 25 26  2  0  0  0
 27 28  1  0  0  0
 27 29  1  0  0  0
 27 30  1  0  0  0
  2  3  2  0  0  0
  2  4  1  0  0  0
  4  5  1  0  0  0
  4  9  1  0  0  0
  5  6  1  0  0  0
  6  7  1  0  0  0
  7  8  1  0  0  0
  7 10  1  0  0  0
  8  9  1  0  0  0
 10 11  1  0  0  0
 31 32  1  0  0  0
 32 33  1  0  0  0
 33 34  1  0  0  0
 34 35  2  0  0  0
 35 37  1  0  0  0
 35 36  1  0  0  0
 11 12  1  0  0  0
 12 13  1  0  0  0
 16 17  1  0  0  0
 36 38  1  0  0  0
 36 39  1  0  0  0
 37 40  1  0  0  0
 37 41  1  0  0  0
 13 14  1  0  0  0
 13 15  1  0  0  0
M  END
> <minimizedAffinity>
-7.44297

$$$$
1W7G_MIU_H_300


 41 42  0  0  0  0  0  0  0  0999 V2000
   18.1173  -15.5612   20.5656 C   0  0  0  0  0  0  0  0  0  0  0  0
   17.5698  -16.4660   21.7709 C   0  0  0  0  0  0  0  0  0  0  0  0
   17.8943  -16.1430   22.9268 O   0  0  0  0  0  0  0  0  0  0  0  0
   16.7435  -17.5684   21.5590 N   0  0  0  0  0  0  0  0  0  0  0  0
   15.9827  -18.2253   22.6318 C   0  0  0  0  0  0  0  0  0  0  0  0
   14.5394  -18.1889   22.2718 C   0  0  0  0  0  0  0  0  0  0  0  0
   14.3630  -18.8712   20.9159 N   0  0  0  0  0  0  0  0  0  0  0  0
   15.1273  -18.1827   19.7960 C   0  0  0  0  0  0  0  0  0  0  0  0
   16.6147  -18.1645   20.1549 C   0  0  0  0  0  0  0  0  0  0  0  0
   13.0694  -18.4779   20.3485 C   0  0  0  0  0  0  0  0  0  0  0  0
   12.0207  -19.5442   19.9178 C   0  0  0  0  0  0  0  0  0  0  0  0
   11.5332  -19.4165   18.4619 C   0  0  0  0  0  0  0  0  0  0  0  0
   10.4611  -18.4060   18.3826 N   0  0  0  0  0  0  0  0  0  0  0  0
    9.6810  -18.6908   18.9748 H   0  0  0  0  0  0  0  0  0  0  0  0
   10.1426  -18.3232   17.4172 H   0  0  0  0  0  0  0  0  0  0  0  0
   17.5458  -14.1887   20.6032 N   0  0  0  0  0  0  0  0  0  0  0  0
   17.1821  -14.0323   21.5433 H   0  0  0  0  0  0  0  0  0  0  0  0
   16.2659  -13.8371   19.4801 S   0  0  0  0  0  0  0  0  0  0  0  0
   16.6331  -12.4878   18.7397 O   0  0  0  0  0  0  0  0  0  0  0  0
   16.2985  -15.0222   18.4242 O   0  0  0  0  0  0  0  0  0  0  0  0
   14.6923  -13.7405   20.2367 C   0  0  0  0  0  0  0  0  0  0  0  0
   13.8981  -14.9062   20.3918 C   0  0  0  0  0  0  0  0  0  0  0  0
   12.6249  -14.7993   21.0161 C   0  0  0  0  0  0  0  0  0  0  0  0
   12.1568  -13.5358   21.4736 C   0  0  0  0  0  0  0  0  0  0  0  0
   12.9620  -12.3575   21.3143 C   0  0  0  0  0  0  0  0  0  0  0  0
   14.2351  -12.4792   20.6857 C   0  0  0  0  0  0  0  0  0  0  0  0
   12.4409  -10.9838   21.8235 C   0  0  0  0  0  0  0  0  0  0  0  0
   11.9164  -10.2560   20.8007 F   0  0  0  0  0  0  0  0  0  0  0  0
   11.4677  -11.1704   22.7638 F   0  0  0  0  0  0  0  0  0  0  0  0
   13.4472  -10.2625   22.3915 F   0  0  0  0  0  0  0  0  0  0  0  0
   19.6542  -15.2916   20.4830 C   0  0  0  0  0  0  0  0  0  0  0  0
   20.1902  -13.8619   20.7439 C   0  0  0  0  0  0  0  0  0  0  0  0
   20.5020  -13.2167   19.3926 C   0  0  0  0  0  0  0  0  0  0  0  0
   20.0498  -13.9700   18.1988 N   0  0  0  0  0  0  0  0  0  0  0  0
   19.7274  -13.4133   17.0347 C   0  0  0  0  0  0  0  0  0  0  0  0
   18.5236  -13.5948   16.5670 N   0  0  0  0  0  0  0  0  0  0  0  0
   20.5300  -12.6906   16.3021 N   0  0  0  0  0  0  0  0  0  0  0  0
   17.8736  -14.1315   17.0757 H   0  0  0  0  0  0  0  0  0  0  0  0
   18.2649  -13.1953   15.7052 H   0  0  0  0  0  0  0  0  0  0  0  0
   21.4513  -12.5192   16.6037 H   0  0  0  0  0  0  0  0  0  0  0  0
   20.2141  -12.3168   15.4478 H   0  0  0  0  0  0  0  0  0  0  0  0
 21 18  1  0  0  0
 21 22  2  0  0  0
 21 26  1  0  0  0
 18 16  1  0  0  0
 18 19  2  0  0  0
 18 20  2  0  0  0
 16  1  1  0  0  0
  1  2  1  0  0  0
  1 31  1  0  0  0
 22 23  1  0  0  0
 23 24  2  0  0  0
 24 25  1  0  0  0
 25 27  1  0  0  0
 25 26  2  0  0  0
 27 28  1  0  0  0
 27 29  1  0  0  0
 27 30  1  0  0  0
  2  3  2  0  0  0
  2  4  1  0  0  0
  4  5  1  0  0  0
  4  9  1  0  0  0
  5  6  1  0  0  0
  6  7  1  0  0  0
  7  8  1  0  0  0
  7 10  1  0  0  0
  8  9  1  0  0  0
 10 11  1  0  0  0
 31 32  1  0  0  0
 32 33  1  0  0  0
 33 34  1  0  0  0
 34 35  2  0  0  0
 35 37  1  0  0  0
 35 36  1  0  0  0
 11 12  1  0  0  0
 12 13  1  0  0  0
 16 17  1  0  0  0
 36 38  1  0  0  0
 36 39  1  0  0  0
 37 40  1  0  0  0
 37 41  1  0  0  0
 13 14  1  0  0  0
 13 15  1  0  0  0
M  END
> <minimizedAffinity>
-7.44031

$$$$
1W7G_MIU_H_300


 41 42  0  0  0  0  0  0  0  0999 V2000
   15.4544  -16.2022   21.1616 C   0  0  0  0  0  0  0  0  0  0  0  0
   16.7562  -17.0952   20.8805 C   0  0  0  0  0  0  0  0  0  0  0  0
   16.8920  -17.5721   19.7404 O   0  0  0  0  0  0  0  0  0  0  0  0
   17.7247  -17.3280   21.8555 N   0  0  0  0  0  0  0  0  0  0  0  0
   19.0580  -17.8701   21.5561 C   0  0  0  0  0  0  0  0  0  0  0  0
   20.0770  -16.8979   22.0362 C   0  0  0  0  0  0  0  0  0  0  0  0
   19.8538  -16.6630   23.5296 N   0  0  0  0  0  0  0  0  0  0  0  0
   18.4856  -16.0789   23.8451 C   0  0  0  0  0  0  0  0  0  0  0  0
   17.4108  -17.0360   23.3250 C   0  0  0  0  0  0  0  0  0  0  0  0
   20.5335  -15.4253   23.9248 C   0  0  0  0  0  0  0  0  0  0  0  0
   20.0168  -14.5672   25.1159 C   0  0  0  0  0  0  0  0  0  0  0  0
   21.1229  -13.9171   25.9688 C   0  0  0  0  0  0  0  0  0  0  0  0
   22.2179  -14.8823   26.1839 N   0  0  0  0  0  0  0  0  0  0  0  0
   21.8569  -15.7031   26.6701 H   0  0  0  0  0  0  0  0  0  0  0  0
   22.9487  -14.4474   26.7471 H   0  0  0  0  0  0  0  0  0  0  0  0
   15.1912  -15.2472   20.0523 N   0  0  0  0  0  0  0  0  0  0  0  0
   15.5379  -15.6714   19.1920 H   0  0  0  0  0  0  0  0  0  0  0  0
   15.9079  -13.6686   20.1850 S   0  0  0  0  0  0  0  0  0  0  0  0
   15.0463  -12.6740   19.3062 O   0  0  0  0  0  0  0  0  0  0  0  0
   15.7509  -13.2648   21.7123 O   0  0  0  0  0  0  0  0  0  0  0  0
   17.5927  -13.6352   19.7176 C   0  0  0  0  0  0  0  0  0  0  0  0
   18.6115  -13.6558   20.7052 C   0  0  0  0  0  0  0  0  0  0  0  0
   19.9734  -13.6338   20.2963 C   0  0  0  0  0  0  0  0  0  0  0  0
   20.3039  -13.5873   18.9131 C   0  0  0  0  0  0  0  0  0  0  0  0
   19.2709  -13.5653   17.9159 C   0  0  0  0  0  0  0  0  0  0  0  0
   17.9106  -13.5864   18.3400 C   0  0  0  0  0  0  0  0  0  0  0  0
   19.6458  -13.5199   16.4074 C   0  0  0  0  0  0  0  0  0  0  0  0
   18.6143  -13.9633   15.6391 F   0  0  0  0  0  0  0  0  0  0  0  0
   19.9414  -12.2392   16.0357 F   0  0  0  0  0  0  0  0  0  0  0  0
   20.7350  -14.2977   16.1537 F   0  0  0  0  0  0  0  0  0  0  0  0
   14.0805  -16.9288   21.3230 C   0  0  0  0  0  0  0  0  0  0  0  0
   13.4649  -17.6690   20.1095 C   0  0  0  0  0  0  0  0  0  0  0  0
   11.9987  -17.2500   19.9905 C   0  0  0  0  0  0  0  0  0  0  0  0
   11.4733  -17.1267   18.6100 N   0  0  0  0  0  0  0  0  0  0  0  0
   11.3419  -18.1419   17.7608 C   0  0  0  0  0  0  0  0  0  0  0  0
   11.9800  -18.0932   16.6245 N   0  0  0  0  0  0  0  0  0  0  0  0
   10.6098  -19.2022   17.9684 N   0  0  0  0  0  0  0  0  0  0  0  0
   12.5481  -17.3177   16.4119 H   0  0  0  0  0  0  0  0  0  0  0  0
   11.8938  -18.8318   15.9794 H   0  0  0  0  0  0  0  0  0  0  0  0
   10.1048  -19.2949   18.8084 H   0  0  0  0  0  0  0  0  0  0  0  0
   10.5626  -19.9093   17.2850 H   0  0  0  0  0  0  0  0  0  0  0  0
 21 18  1  0  0  0
 21 22  2  0  0  0
 21 26  1  0  0  0
 18 16  1  0  0  0
 18 19  2  0  0  0
 18 20  2  0  0  0
 16  1  1  0  0  0
  1  2  1  0  0  0
  1 31  1  0  0  0
 22 23  1  0  0  0
 23 24  2  0  0  0
 24 25  1  0  0  0
 25 27  1  0  0  0
 25 26  2  0  0  0
 27 28  1  0  0  0
 27 29  1  0  0  0
 27 30  1  0  0  0
  2  3  2  0  0  0
  2  4  1  0  0  0
  4  5  1  0  0  0
  4  9  1  0  0  0
  5  6  1  0  0  0
  6  7  1  0  0  0
  7  8  1  0  0  0
  7 10  1  0  0  0
  8  9  1  0  0  0
 10 11  1  0  0  0
 31 32  1  0  0  0
 32 33  1  0  0  0
 33 34  1  0  0  0
 34 35  2  0  0  0
 35 37  1  0  0  0
 35 36  1  0  0  0
 11 12  1  0  0  0
 12 13  1  0  0  0
 16 17  1  0  0  0
 36 38  1  0  0  0
 36 39  1  0  0  0
 37 40  1  0  0  0
 37 41  1  0  0  0
 13 14  1  0  0  0
 13 15  1  0  0  0
M  END
> <minimizedAffinity>
-7.40425

$$$$
1W7G_MIU_H_300


 41 42  0  0  0  0  0  0  0  0999 V2000
   16.8945  -18.1360   21.8752 C   0  0  0  0  0  0  0  0  0  0  0  0
   18.0288  -18.7702   22.8147 C   0  0  0  0  0  0  0  0  0  0  0  0
   18.4054  -19.9277   22.5613 O   0  0  0  0  0  0  0  0  0  0  0  0
   18.6013  -18.0643   23.8714 N   0  0  0  0  0  0  0  0  0  0  0  0
   19.8365  -18.4854   24.5485 C   0  0  0  0  0  0  0  0  0  0  0  0
   20.8302  -17.3835   24.4368 C   0  0  0  0  0  0  0  0  0  0  0  0
   20.2211  -16.1209   25.0450 N   0  0  0  0  0  0  0  0  0  0  0  0
   18.9565  -15.6649   24.3342 C   0  0  0  0  0  0  0  0  0  0  0  0
   17.9252  -16.7939   24.3931 C   0  0  0  0  0  0  0  0  0  0  0  0
   20.9725  -14.9535   24.5730 C   0  0  0  0  0  0  0  0  0  0  0  0
   22.4420  -14.7059   25.0217 C   0  0  0  0  0  0  0  0  0  0  0  0
   23.4714  -14.6909   23.8755 C   0  0  0  0  0  0  0  0  0  0  0  0
   24.2974  -15.9121   23.9321 N   0  0  0  0  0  0  0  0  0  0  0  0
   24.7889  -15.9489   24.8251 H   0  0  0  0  0  0  0  0  0  0  0  0
   24.9761  -15.8991   23.1708 H   0  0  0  0  0  0  0  0  0  0  0  0
   17.4593  -17.6248   20.5979 N   0  0  0  0  0  0  0  0  0  0  0  0
   18.4755  -17.6307   20.6863 H   0  0  0  0  0  0  0  0  0  0  0  0
   16.9841  -16.0248   20.1106 S   0  0  0  0  0  0  0  0  0  0  0  0
   16.0486  -16.1664   18.8424 O   0  0  0  0  0  0  0  0  0  0  0  0
   16.1226  -15.4584   21.3178 O   0  0  0  0  0  0  0  0  0  0  0  0
   18.3418  -14.9716   19.7860 C   0  0  0  0  0  0  0  0  0  0  0  0
   19.1412  -14.4827   20.8517 C   0  0  0  0  0  0  0  0  0  0  0  0
   20.2427  -13.6325   20.5581 C   0  0  0  0  0  0  0  0  0  0  0  0
   20.5320  -13.2766   19.2112 C   0  0  0  0  0  0  0  0  0  0  0  0
   19.7207  -13.7718   18.1348 C   0  0  0  0  0  0  0  0  0  0  0  0
   18.6194  -14.6217   18.4437 C   0  0  0  0  0  0  0  0  0  0  0  0
   20.0510  -13.3795   16.6667 C   0  0  0  0  0  0  0  0  0  0  0  0
   18.9249  -13.0070   16.0005 F   0  0  0  0  0  0  0  0  0  0  0  0
   20.9300  -12.3340   16.6469 F   0  0  0  0  0  0  0  0  0  0  0  0
   20.6182  -14.4236   16.0006 F   0  0  0  0  0  0  0  0  0  0  0  0
   15.7328  -19.0620   21.3913 C   0  0  0  0  0  0  0  0  0  0  0  0
   14.3104  -18.8636   21.9717 C   0  0  0  0  0  0  0  0  0  0  0  0
   13.4288  -18.2628   20.8755 C   0  0  0  0  0  0  0  0  0  0  0  0
   13.0076  -16.8572   21.0849 N   0  0  0  0  0  0  0  0  0  0  0  0
   12.7676  -15.9892   20.1061 C   0  0  0  0  0  0  0  0  0  0  0  0
   13.4685  -14.8904   20.0590 N   0  0  0  0  0  0  0  0  0  0  0  0
   11.8689  -16.1428   19.1723 N   0  0  0  0  0  0  0  0  0  0  0  0
   14.1614  -14.7192   20.7371 H   0  0  0  0  0  0  0  0  0  0  0  0
   13.3047  -14.2323   19.3454 H   0  0  0  0  0  0  0  0  0  0  0  0
   11.3092  -16.9525   19.1562 H   0  0  0  0  0  0  0  0  0  0  0  0
   11.7507  -15.4489   18.4840 H   0  0  0  0  0  0  0  0  0  0  0  0
 21 18  1  0  0  0
 21 22  2  0  0  0
 21 26  1  0  0  0
 18 16  1  0  0  0
 18 19  2  0  0  0
 18 20  2  0  0  0
 16  1  1  0  0  0
  1  2  1  0  0  0
  1 31  1  0  0  0
 22 23  1  0  0  0
 23 24  2  0  0  0
 24 25  1  0  0  0
 25 27  1  0  0  0
 25 26  2  0  0  0
 27 28  1  0  0  0
 27 29  1  0  0  0
 27 30  1  0  0  0
  2  3  2  0  0  0
  2  4  1  0  0  0
  4  5  1  0  0  0
  4  9  1  0  0  0
  5  6  1  0  0  0
  6  7  1  0  0  0
  7  8  1  0  0  0
  7 10  1  0  0  0
  8  9  1  0  0  0
 10 11  1  0  0  0
 31 32  1  0  0  0
 32 33  1  0  0  0
 33 34  1  0  0  0
 34 35  2  0  0  0
 35 37  1  0  0  0
 35 36  1  0  0  0
 11 12  1  0  0  0
 12 13  1  0  0  0
 16 17  1  0  0  0
 36 38  1  0  0  0
 36 39  1  0  0  0
 37 40  1  0  0  0
 37 41  1  0  0  0
 13 14  1  0  0  0
 13 15  1  0  0  0
M  END
> <minimizedAffinity>
-7.10210

$$$$
