5IA0_A5B_A_1001


 39 43  0  0  0  0  0  0  0  0999 V2000
  -25.4532   -3.5383  -28.7814 C   0  0  0  0  0  0  0  0  0  0  0  0
  -26.6038   -3.0796  -28.2598 N   0  0  0  0  0  0  0  0  0  0  0  0
  -24.7654   -2.7809  -29.6690 N   0  0  0  0  0  0  0  0  0  0  0  0
  -25.2218   -1.5060  -30.0206 C   0  0  0  0  0  0  0  0  0  0  0  0
  -26.3956   -1.0443  -29.4487 C   0  0  0  0  0  0  0  0  0  0  0  0
  -26.7390    0.2312  -29.9000 C   0  0  0  0  0  0  0  0  0  0  0  0
  -27.0213    1.1145  -28.7508 N   0  0  0  0  0  0  0  0  0  0  0  0
  -27.0726   -1.8592  -28.5521 C   0  0  0  0  0  0  0  0  0  0  0  0
  -28.2704   -1.5264  -27.9336 C   0  0  0  0  0  0  0  0  0  0  0  0
  -29.0954   -2.6230  -27.6840 C   0  0  0  0  0  0  0  0  0  0  0  0
  -30.3453   -2.4089  -27.1062 C   0  0  0  0  0  0  0  0  0  0  0  0
  -30.7488   -1.1164  -26.7719 C   0  0  0  0  0  0  0  0  0  0  0  0
  -32.3136   -0.8158  -26.0455 Cl  0  0  0  0  0  0  0  0  0  0  0  0
  -29.9068   -0.0351  -27.0080 C   0  0  0  0  0  0  0  0  0  0  0  0
  -28.6748   -0.2378  -27.6152 C   0  0  0  0  0  0  0  0  0  0  0  0
  -27.9127    0.9268  -27.7832 C   0  0  0  0  0  0  0  0  0  0  0  0
  -27.9139    1.8977  -26.7799 C   0  0  0  0  0  0  0  0  0  0  0  0
  -27.2344    1.6789  -25.5714 C   0  0  0  0  0  0  0  0  0  0  0  0
  -26.5589    0.4454  -25.3046 F   0  0  0  0  0  0  0  0  0  0  0  0
  -27.2332    2.6593  -24.5800 C   0  0  0  0  0  0  0  0  0  0  0  0
  -27.8905    3.8672  -24.8038 C   0  0  0  0  0  0  0  0  0  0  0  0
  -28.5499    4.0981  -26.0113 C   0  0  0  0  0  0  0  0  0  0  0  0
  -28.5424    3.1105  -26.9867 C   0  0  0  0  0  0  0  0  0  0  0  0
  -29.1492    3.2454  -28.1853 O   0  0  0  0  0  0  0  0  0  0  0  0
  -28.5184    4.2651  -28.9428 C   0  0  0  0  0  0  0  0  0  0  0  0
  -24.9383   -4.7505  -28.5283 N   0  0  0  0  0  0  0  0  0  0  0  0
  -24.0465   -4.9334  -28.9030 H   0  0  0  0  0  0  0  0  0  0  0  0
  -26.0569   -7.0693  -25.8602 C   0  0  0  0  0  0  0  0  0  0  0  0
  -25.4014   -5.9750  -26.4444 C   0  0  0  0  0  0  0  0  0  0  0  0
  -26.8361   -7.9481  -26.6239 C   0  0  0  0  0  0  0  0  0  0  0  0
  -26.9258   -7.7205  -27.9880 C   0  0  0  0  0  0  0  0  0  0  0  0
  -26.2871   -6.6230  -28.5607 C   0  0  0  0  0  0  0  0  0  0  0  0
  -25.5066   -5.7497  -27.8162 C   0  0  0  0  0  0  0  0  0  0  0  0
  -27.4882   -9.0796  -26.0965 C   0  0  0  0  0  0  0  0  0  0  0  0
  -28.7040   -9.2686  -26.3122 O   0  0  0  0  0  0  0  0  0  0  0  0
  -26.8425   -9.9811  -25.5200 O   0  0  0  0  0  0  0  0  0  0  0  0
  -25.9291   -9.8652  -25.3459 H   0  0  0  0  0  0  0  0  0  0  0  0
  -24.7753   -6.9630  -23.8559 C   0  0  0  0  0  0  0  0  0  0  0  0
  -25.9975   -7.3295  -24.5216 O   0  0  0  0  0  0  0  0  0  0  0  0
  4  3  2  0  0  0
  4  5  1  0  0  0
  3  1  1  0  0  0
  6  5  1  0  0  0
  6  7  1  0  0  0
  5  8  2  0  0  0
  1 26  1  0  0  0
  1  2  2  0  0  0
 26 33  1  0  0  0
  8  2  1  0  0  0
  8  9  1  0  0  0
  7 16  2  0  0  0
 25 24  1  0  0  0
 32 33  2  0  0  0
 32 31  1  0  0  0
 33 29  1  0  0  0
 24 23  1  0  0  0
  9 10  2  0  0  0
  9 15  1  0  0  0
 10 11  1  0  0  0
 16 15  1  0  0  0
 16 17  1  0  0  0
 15 14  2  0  0  0
 31 30  2  0  0  0
 29 28  2  0  0  0
 11 12  2  0  0  0
 14 12  1  0  0  0
 23 17  2  0  0  0
 23 22  1  0  0  0
 17 18  1  0  0  0
 12 13  1  0  0  0
 30 28  1  0  0  0
 30 34  1  0  0  0
 28 39  1  0  0  0
 22 21  2  0  0  0
 35 34  2  0  0  0
 18 19  1  0  0  0
 18 20  2  0  0  0
 34 36  1  0  0  0
 39 38  1  0  0  0
 21 20  1  0  0  0
 36 37  1  0  0  0
 26 27  1  0  0  0
M  END
> <minimizedAffinity>
-9.36618

$$$$
5IA0_A5B_A_1001


 39 43  0  0  0  0  0  0  0  0999 V2000
  -25.5324   -3.3821  -28.8283 C   0  0  0  0  0  0  0  0  0  0  0  0
  -26.6738   -2.9160  -28.2931 N   0  0  0  0  0  0  0  0  0  0  0  0
  -24.8398   -2.6208  -29.7087 N   0  0  0  0  0  0  0  0  0  0  0  0
  -25.2812   -1.3350  -30.0388 C   0  0  0  0  0  0  0  0  0  0  0  0
  -26.4454   -0.8663  -29.4533 C   0  0  0  0  0  0  0  0  0  0  0  0
  -26.7744    0.4202  -29.8838 C   0  0  0  0  0  0  0  0  0  0  0  0
  -27.0382    1.2901  -28.7200 N   0  0  0  0  0  0  0  0  0  0  0  0
  -27.1280   -1.6852  -28.5647 C   0  0  0  0  0  0  0  0  0  0  0  0
  -28.3176   -1.3458  -27.9342 C   0  0  0  0  0  0  0  0  0  0  0  0
  -29.1557   -2.4349  -27.6958 C   0  0  0  0  0  0  0  0  0  0  0  0
  -30.3994   -2.2129  -27.1075 C   0  0  0  0  0  0  0  0  0  0  0  0
  -30.7837   -0.9202  -26.7519 C   0  0  0  0  0  0  0  0  0  0  0  0
  -32.3401   -0.6097  -26.0118 Cl  0  0  0  0  0  0  0  0  0  0  0  0
  -29.9287    0.1532  -26.9771 C   0  0  0  0  0  0  0  0  0  0  0  0
  -28.7030   -0.0569  -27.5945 C   0  0  0  0  0  0  0  0  0  0  0  0
  -27.9265    1.0999  -27.7500 C   0  0  0  0  0  0  0  0  0  0  0  0
  -27.9090    2.0559  -26.7326 C   0  0  0  0  0  0  0  0  0  0  0  0
  -28.5395    3.2977  -26.9064 C   0  0  0  0  0  0  0  0  0  0  0  0
  -29.1794    3.6470  -28.1383 F   0  0  0  0  0  0  0  0  0  0  0  0
  -28.5250    4.2415  -25.8800 C   0  0  0  0  0  0  0  0  0  0  0  0
  -27.9012    3.9370  -24.6720 C   0  0  0  0  0  0  0  0  0  0  0  0
  -27.2909    2.6963  -24.4865 C   0  0  0  0  0  0  0  0  0  0  0  0
  -27.3134    1.7693  -25.5194 C   0  0  0  0  0  0  0  0  0  0  0  0
  -26.7535    0.5439  -25.4303 O   0  0  0  0  0  0  0  0  0  0  0  0
  -27.0025   -0.0178  -24.1521 C   0  0  0  0  0  0  0  0  0  0  0  0
  -25.0323   -4.6046  -28.5960 N   0  0  0  0  0  0  0  0  0  0  0  0
  -24.1626   -4.8070  -29.0106 H   0  0  0  0  0  0  0  0  0  0  0  0
  -26.1645   -6.8338  -25.8582 C   0  0  0  0  0  0  0  0  0  0  0  0
  -25.5303   -5.7430  -26.4718 C   0  0  0  0  0  0  0  0  0  0  0  0
  -26.8758   -7.7814  -26.6056 C   0  0  0  0  0  0  0  0  0  0  0  0
  -26.9188   -7.6257  -27.9819 C   0  0  0  0  0  0  0  0  0  0  0  0
  -26.3020   -6.5318  -28.5849 C   0  0  0  0  0  0  0  0  0  0  0  0
  -25.5885   -5.5905  -27.8563 C   0  0  0  0  0  0  0  0  0  0  0  0
  -27.5028   -8.9120  -26.0467 C   0  0  0  0  0  0  0  0  0  0  0  0
  -28.6902   -9.1814  -26.3259 O   0  0  0  0  0  0  0  0  0  0  0  0
  -26.8516   -9.7383  -25.3719 O   0  0  0  0  0  0  0  0  0  0  0  0
  -25.9591   -9.5612  -25.1485 H   0  0  0  0  0  0  0  0  0  0  0  0
  -24.8596   -6.9683  -23.8708 C   0  0  0  0  0  0  0  0  0  0  0  0
  -26.1494   -7.0247  -24.5068 O   0  0  0  0  0  0  0  0  0  0  0  0
  4  3  2  0  0  0
  4  5  1  0  0  0
  3  1  1  0  0  0
  6  5  1  0  0  0
  6  7  1  0  0  0
  5  8  2  0  0  0
  1 26  1  0  0  0
  1  2  2  0  0  0
 26 33  1  0  0  0
  8  2  1  0  0  0
  8  9  1  0  0  0
  7 16  2  0  0  0
 25 24  1  0  0  0
 32 33  2  0  0  0
 32 31  1  0  0  0
 33 29  1  0  0  0
 24 23  1  0  0  0
  9 10  2  0  0  0
  9 15  1  0  0  0
 10 11  1  0  0  0
 16 15  1  0  0  0
 16 17  1  0  0  0
 15 14  2  0  0  0
 31 30  2  0  0  0
 29 28  2  0  0  0
 11 12  2  0  0  0
 14 12  1  0  0  0
 23 17  2  0  0  0
 23 22  1  0  0  0
 17 18  1  0  0  0
 12 13  1  0  0  0
 30 28  1  0  0  0
 30 34  1  0  0  0
 28 39  1  0  0  0
 22 21  2  0  0  0
 35 34  2  0  0  0
 18 19  1  0  0  0
 18 20  2  0  0  0
 34 36  1  0  0  0
 39 38  1  0  0  0
 21 20  1  0  0  0
 36 37  1  0  0  0
 26 27  1  0  0  0
M  END
> <minimizedAffinity>
-9.15035

$$$$
5IA0_A5B_A_1001


 39 43  0  0  0  0  0  0  0  0999 V2000
  -26.7067   -5.5179  -26.7900 C   0  0  0  0  0  0  0  0  0  0  0  0
  -27.6795   -4.6070  -26.6157 N   0  0  0  0  0  0  0  0  0  0  0  0
  -25.7228   -5.2901  -27.6926 N   0  0  0  0  0  0  0  0  0  0  0  0
  -25.6874   -4.0958  -28.4204 C   0  0  0  0  0  0  0  0  0  0  0  0
  -26.6857   -3.1609  -28.2033 C   0  0  0  0  0  0  0  0  0  0  0  0
  -26.5346   -2.0284  -29.0054 C   0  0  0  0  0  0  0  0  0  0  0  0
  -26.6107   -0.8086  -28.1766 N   0  0  0  0  0  0  0  0  0  0  0  0
  -27.6796   -3.4414  -27.2762 C   0  0  0  0  0  0  0  0  0  0  0  0
  -28.7482   -2.6030  -26.9877 C   0  0  0  0  0  0  0  0  0  0  0  0
  -29.9142   -3.2828  -26.6359 C   0  0  0  0  0  0  0  0  0  0  0  0
  -31.0679   -2.5487  -26.3671 C   0  0  0  0  0  0  0  0  0  0  0  0
  -31.0421   -1.1560  -26.4361 C   0  0  0  0  0  0  0  0  0  0  0  0
  -32.4756   -0.2063  -26.1046 Cl  0  0  0  0  0  0  0  0  0  0  0  0
  -29.8666   -0.4913  -26.7682 C   0  0  0  0  0  0  0  0  0  0  0  0
  -28.7231   -1.2183  -27.0710 C   0  0  0  0  0  0  0  0  0  0  0  0
  -27.6009   -0.4343  -27.3732 C   0  0  0  0  0  0  0  0  0  0  0  0
  -27.3702    0.7393  -26.6530 C   0  0  0  0  0  0  0  0  0  0  0  0
  -26.9119    0.6871  -25.3274 C   0  0  0  0  0  0  0  0  0  0  0  0
  -26.7089   -0.5595  -24.6536 F   0  0  0  0  0  0  0  0  0  0  0  0
  -26.6747    1.8652  -24.6203 C   0  0  0  0  0  0  0  0  0  0  0  0
  -26.8728    3.0954  -25.2438 C   0  0  0  0  0  0  0  0  0  0  0  0
  -27.3084    3.1530  -26.5678 C   0  0  0  0  0  0  0  0  0  0  0  0
  -27.5412    1.9704  -27.2562 C   0  0  0  0  0  0  0  0  0  0  0  0
  -27.9599    1.9275  -28.5392 O   0  0  0  0  0  0  0  0  0  0  0  0
  -27.1935    2.8163  -29.3355 C   0  0  0  0  0  0  0  0  0  0  0  0
  -26.6569   -6.7010  -26.1604 N   0  0  0  0  0  0  0  0  0  0  0  0
  -27.4902   -7.2250  -26.1485 H   0  0  0  0  0  0  0  0  0  0  0  0
  -23.8039   -8.8458  -25.1568 C   0  0  0  0  0  0  0  0  0  0  0  0
  -24.8943   -8.4014  -25.9198 C   0  0  0  0  0  0  0  0  0  0  0  0
  -23.3800   -8.1538  -24.0148 C   0  0  0  0  0  0  0  0  0  0  0  0
  -24.0854   -7.0211  -23.6409 C   0  0  0  0  0  0  0  0  0  0  0  0
  -25.1567   -6.5743  -24.4112 C   0  0  0  0  0  0  0  0  0  0  0  0
  -25.5906   -7.2549  -25.5402 C   0  0  0  0  0  0  0  0  0  0  0  0
  -22.3145   -8.5719  -23.1941 C   0  0  0  0  0  0  0  0  0  0  0  0
  -22.5132   -8.8605  -21.9951 O   0  0  0  0  0  0  0  0  0  0  0  0
  -21.1821   -8.7912  -23.6756 O   0  0  0  0  0  0  0  0  0  0  0  0
  -21.0062   -8.5840  -24.5723 H   0  0  0  0  0  0  0  0  0  0  0  0
  -22.9783  -10.2494  -26.8943 C   0  0  0  0  0  0  0  0  0  0  0  0
  -23.0801   -9.9541  -25.4894 O   0  0  0  0  0  0  0  0  0  0  0  0
  4  3  2  0  0  0
  4  5  1  0  0  0
  3  1  1  0  0  0
  6  5  1  0  0  0
  6  7  1  0  0  0
  5  8  2  0  0  0
  1 26  1  0  0  0
  1  2  2  0  0  0
 26 33  1  0  0  0
  8  2  1  0  0  0
  8  9  1  0  0  0
  7 16  2  0  0  0
 25 24  1  0  0  0
 32 33  2  0  0  0
 32 31  1  0  0  0
 33 29  1  0  0  0
 24 23  1  0  0  0
  9 10  2  0  0  0
  9 15  1  0  0  0
 10 11  1  0  0  0
 16 15  1  0  0  0
 16 17  1  0  0  0
 15 14  2  0  0  0
 31 30  2  0  0  0
 29 28  2  0  0  0
 11 12  2  0  0  0
 14 12  1  0  0  0
 23 17  2  0  0  0
 23 22  1  0  0  0
 17 18  1  0  0  0
 12 13  1  0  0  0
 30 28  1  0  0  0
 30 34  1  0  0  0
 28 39  1  0  0  0
 22 21  2  0  0  0
 35 34  2  0  0  0
 18 19  1  0  0  0
 18 20  2  0  0  0
 34 36  1  0  0  0
 39 38  1  0  0  0
 21 20  1  0  0  0
 36 37  1  0  0  0
 26 27  1  0  0  0
M  END
> <minimizedAffinity>
-8.56922

$$$$
5IA0_A5B_A_1001


 39 43  0  0  0  0  0  0  0  0999 V2000
  -29.3462   -3.5187  -25.3686 C   0  0  0  0  0  0  0  0  0  0  0  0
  -28.5962   -2.4063  -25.2891 N   0  0  0  0  0  0  0  0  0  0  0  0
  -30.6579   -3.4264  -25.6933 N   0  0  0  0  0  0  0  0  0  0  0  0
  -31.2331   -2.1849  -25.9851 C   0  0  0  0  0  0  0  0  0  0  0  0
  -30.4331   -1.0561  -25.9232 C   0  0  0  0  0  0  0  0  0  0  0  0
  -31.1390    0.1106  -26.2219 C   0  0  0  0  0  0  0  0  0  0  0  0
  -30.4150    0.8907  -27.2456 N   0  0  0  0  0  0  0  0  0  0  0  0
  -29.0968   -1.1972  -25.5760 C   0  0  0  0  0  0  0  0  0  0  0  0
  -28.1992   -0.1451  -25.4514 C   0  0  0  0  0  0  0  0  0  0  0  0
  -27.2195   -0.3568  -24.4814 C   0  0  0  0  0  0  0  0  0  0  0  0
  -26.2873    0.6490  -24.2337 C   0  0  0  0  0  0  0  0  0  0  0  0
  -26.3322    1.8382  -24.9609 C   0  0  0  0  0  0  0  0  0  0  0  0
  -25.1750    3.1205  -24.6719 Cl  0  0  0  0  0  0  0  0  0  0  0  0
  -27.3023    2.0265  -25.9393 C   0  0  0  0  0  0  0  0  0  0  0  0
  -28.2551    1.0425  -26.1666 C   0  0  0  0  0  0  0  0  0  0  0  0
  -29.1669    1.3434  -27.1881 C   0  0  0  0  0  0  0  0  0  0  0  0
  -28.7174    1.9946  -28.3385 C   0  0  0  0  0  0  0  0  0  0  0  0
  -28.7259    3.3959  -28.4172 C   0  0  0  0  0  0  0  0  0  0  0  0
  -29.2335    4.2031  -27.3495 F   0  0  0  0  0  0  0  0  0  0  0  0
  -28.2652    4.0366  -29.5667 C   0  0  0  0  0  0  0  0  0  0  0  0
  -27.7745    3.2795  -30.6285 C   0  0  0  0  0  0  0  0  0  0  0  0
  -27.7445    1.8872  -30.5473 C   0  0  0  0  0  0  0  0  0  0  0  0
  -28.2086    1.2658  -29.3961 C   0  0  0  0  0  0  0  0  0  0  0  0
  -28.2152   -0.0736  -29.2258 O   0  0  0  0  0  0  0  0  0  0  0  0
  -26.8992   -0.5896  -29.3415 C   0  0  0  0  0  0  0  0  0  0  0  0
  -28.9007   -4.7526  -25.0901 N   0  0  0  0  0  0  0  0  0  0  0  0
  -29.4040   -5.2558  -24.4099 H   0  0  0  0  0  0  0  0  0  0  0  0
  -25.8128   -6.7120  -25.7004 C   0  0  0  0  0  0  0  0  0  0  0  0
  -26.8584   -6.1209  -24.9753 C   0  0  0  0  0  0  0  0  0  0  0  0
  -25.7295   -6.5916  -27.0937 C   0  0  0  0  0  0  0  0  0  0  0  0
  -26.7026   -5.8478  -27.7420 C   0  0  0  0  0  0  0  0  0  0  0  0
  -27.7482   -5.2772  -27.0197 C   0  0  0  0  0  0  0  0  0  0  0  0
  -27.8378   -5.3832  -25.6388 C   0  0  0  0  0  0  0  0  0  0  0  0
  -24.6858   -7.1353  -27.8676 C   0  0  0  0  0  0  0  0  0  0  0  0
  -24.7228   -8.3294  -28.2325 O   0  0  0  0  0  0  0  0  0  0  0  0
  -23.7742   -6.4075  -28.3163 O   0  0  0  0  0  0  0  0  0  0  0  0
  -23.7233   -5.5080  -28.0589 H   0  0  0  0  0  0  0  0  0  0  0  0
  -24.3620   -6.9768  -23.8307 C   0  0  0  0  0  0  0  0  0  0  0  0
  -24.8352   -7.4541  -25.1033 O   0  0  0  0  0  0  0  0  0  0  0  0
  4  3  2  0  0  0
  4  5  1  0  0  0
  3  1  1  0  0  0
  6  5  1  0  0  0
  6  7  1  0  0  0
  5  8  2  0  0  0
  1 26  1  0  0  0
  1  2  2  0  0  0
 26 33  1  0  0  0
  8  2  1  0  0  0
  8  9  1  0  0  0
  7 16  2  0  0  0
 25 24  1  0  0  0
 32 33  2  0  0  0
 32 31  1  0  0  0
 33 29  1  0  0  0
 24 23  1  0  0  0
  9 10  2  0  0  0
  9 15  1  0  0  0
 10 11  1  0  0  0
 16 15  1  0  0  0
 16 17  1  0  0  0
 15 14  2  0  0  0
 31 30  2  0  0  0
 29 28  2  0  0  0
 11 12  2  0  0  0
 14 12  1  0  0  0
 23 17  2  0  0  0
 23 22  1  0  0  0
 17 18  1  0  0  0
 12 13  1  0  0  0
 30 28  1  0  0  0
 30 34  1  0  0  0
 28 39  1  0  0  0
 22 21  2  0  0  0
 35 34  2  0  0  0
 18 19  1  0  0  0
 18 20  2  0  0  0
 34 36  1  0  0  0
 39 38  1  0  0  0
 21 20  1  0  0  0
 36 37  1  0  0  0
 26 27  1  0  0  0
M  END
> <minimizedAffinity>
-8.44391

$$$$
5IA0_A5B_A_1001


 39 43  0  0  0  0  0  0  0  0999 V2000
  -25.9704   -4.6323  -27.3445 C   0  0  0  0  0  0  0  0  0  0  0  0
  -27.0845   -3.9289  -27.0790 N   0  0  0  0  0  0  0  0  0  0  0  0
  -25.1084   -4.1977  -28.2946 N   0  0  0  0  0  0  0  0  0  0  0  0
  -25.3470   -3.0004  -28.9779 C   0  0  0  0  0  0  0  0  0  0  0  0
  -26.4878   -2.2793  -28.6672 C   0  0  0  0  0  0  0  0  0  0  0  0
  -26.6063   -1.1187  -29.4338 C   0  0  0  0  0  0  0  0  0  0  0  0
  -26.8574    0.0424  -28.5567 N   0  0  0  0  0  0  0  0  0  0  0  0
  -27.3481   -2.7683  -27.6940 C   0  0  0  0  0  0  0  0  0  0  0  0
  -28.5349   -2.1572  -27.3117 C   0  0  0  0  0  0  0  0  0  0  0  0
  -29.5258   -3.0561  -26.9172 C   0  0  0  0  0  0  0  0  0  0  0  0
  -30.7774   -2.5631  -26.5533 C   0  0  0  0  0  0  0  0  0  0  0  0
  -31.0201   -1.1898  -26.5714 C   0  0  0  0  0  0  0  0  0  0  0  0
  -32.5826   -0.5404  -26.1203 Cl  0  0  0  0  0  0  0  0  0  0  0  0
  -30.0157   -0.3044  -26.9473 C   0  0  0  0  0  0  0  0  0  0  0  0
  -28.7776   -0.7915  -27.3443 C   0  0  0  0  0  0  0  0  0  0  0  0
  -27.8461    0.2000  -27.6827 C   0  0  0  0  0  0  0  0  0  0  0  0
  -27.7950    1.3772  -26.9338 C   0  0  0  0  0  0  0  0  0  0  0  0
  -27.2357    1.3828  -25.6465 C   0  0  0  0  0  0  0  0  0  0  0  0
  -26.7424    0.1842  -25.0389 F   0  0  0  0  0  0  0  0  0  0  0  0
  -27.1802    2.5661  -24.9110 C   0  0  0  0  0  0  0  0  0  0  0  0
  -27.6618    3.7483  -25.4694 C   0  0  0  0  0  0  0  0  0  0  0  0
  -28.1998    3.7524  -26.7565 C   0  0  0  0  0  0  0  0  0  0  0  0
  -28.2487    2.5651  -27.4739 C   0  0  0  0  0  0  0  0  0  0  0  0
  -28.7473    2.4730  -28.7252 O   0  0  0  0  0  0  0  0  0  0  0  0
  -28.1989    3.4896  -29.5482 C   0  0  0  0  0  0  0  0  0  0  0  0
  -25.6568   -5.7998  -26.7639 N   0  0  0  0  0  0  0  0  0  0  0  0
  -25.4435   -5.7667  -25.8034 H   0  0  0  0  0  0  0  0  0  0  0  0
  -24.6226   -9.1224  -28.0435 C   0  0  0  0  0  0  0  0  0  0  0  0
  -24.5132   -7.8885  -27.3846 C   0  0  0  0  0  0  0  0  0  0  0  0
  -25.8144   -9.5161  -28.6657 C   0  0  0  0  0  0  0  0  0  0  0  0
  -26.8862   -8.6382  -28.6334 C   0  0  0  0  0  0  0  0  0  0  0  0
  -26.7781   -7.4216  -27.9634 C   0  0  0  0  0  0  0  0  0  0  0  0
  -25.6009   -7.0173  -27.3496 C   0  0  0  0  0  0  0  0  0  0  0  0
  -25.9703  -10.7266  -29.3685 C   0  0  0  0  0  0  0  0  0  0  0  0
  -25.8921  -10.7506  -30.6150 O   0  0  0  0  0  0  0  0  0  0  0  0
  -26.0551  -11.8150  -28.7600 O   0  0  0  0  0  0  0  0  0  0  0  0
  -26.1150  -11.8256  -27.8250 H   0  0  0  0  0  0  0  0  0  0  0  0
  -23.1255  -10.5261  -26.8356 C   0  0  0  0  0  0  0  0  0  0  0  0
  -23.5938  -10.0177  -28.0979 O   0  0  0  0  0  0  0  0  0  0  0  0
  4  3  2  0  0  0
  4  5  1  0  0  0
  3  1  1  0  0  0
  6  5  1  0  0  0
  6  7  1  0  0  0
  5  8  2  0  0  0
  1 26  1  0  0  0
  1  2  2  0  0  0
 26 33  1  0  0  0
  8  2  1  0  0  0
  8  9  1  0  0  0
  7 16  2  0  0  0
 25 24  1  0  0  0
 32 33  2  0  0  0
 32 31  1  0  0  0
 33 29  1  0  0  0
 24 23  1  0  0  0
  9 10  2  0  0  0
  9 15  1  0  0  0
 10 11  1  0  0  0
 16 15  1  0  0  0
 16 17  1  0  0  0
 15 14  2  0  0  0
 31 30  2  0  0  0
 29 28  2  0  0  0
 11 12  2  0  0  0
 14 12  1  0  0  0
 23 17  2  0  0  0
 23 22  1  0  0  0
 17 18  1  0  0  0
 12 13  1  0  0  0
 30 28  1  0  0  0
 30 34  1  0  0  0
 28 39  1  0  0  0
 22 21  2  0  0  0
 35 34  2  0  0  0
 18 19  1  0  0  0
 18 20  2  0  0  0
 34 36  1  0  0  0
 39 38  1  0  0  0
 21 20  1  0  0  0
 36 37  1  0  0  0
 26 27  1  0  0  0
M  END
> <minimizedAffinity>
-8.36970

$$$$
5IA0_A5B_A_1001


 39 43  0  0  0  0  0  0  0  0999 V2000
  -27.6180   -1.4012  -29.0621 C   0  0  0  0  0  0  0  0  0  0  0  0
  -27.5290   -2.0060  -27.8652 N   0  0  0  0  0  0  0  0  0  0  0  0
  -26.7312   -1.7056  -30.0396 N   0  0  0  0  0  0  0  0  0  0  0  0
  -25.7437   -2.6738  -29.8282 C   0  0  0  0  0  0  0  0  0  0  0  0
  -25.6895   -3.3029  -28.5956 C   0  0  0  0  0  0  0  0  0  0  0  0
  -24.6495   -4.2311  -28.5197 C   0  0  0  0  0  0  0  0  0  0  0  0
  -25.1621   -5.5243  -28.0243 N   0  0  0  0  0  0  0  0  0  0  0  0
  -26.6122   -2.9516  -27.6202 C   0  0  0  0  0  0  0  0  0  0  0  0
  -26.6469   -3.4855  -26.3389 C   0  0  0  0  0  0  0  0  0  0  0  0
  -27.0981   -2.5886  -25.3706 C   0  0  0  0  0  0  0  0  0  0  0  0
  -27.1347   -2.9964  -24.0385 C   0  0  0  0  0  0  0  0  0  0  0  0
  -26.7394   -4.2881  -23.6917 C   0  0  0  0  0  0  0  0  0  0  0  0
  -26.7736   -4.8291  -22.0266 Cl  0  0  0  0  0  0  0  0  0  0  0  0
  -26.3113   -5.1778  -24.6710 C   0  0  0  0  0  0  0  0  0  0  0  0
  -26.2395   -4.7665  -25.9952 C   0  0  0  0  0  0  0  0  0  0  0  0
  -25.8098   -5.7585  -26.8878 C   0  0  0  0  0  0  0  0  0  0  0  0
  -26.2414   -7.0743  -26.7101 C   0  0  0  0  0  0  0  0  0  0  0  0
  -27.5678   -7.4367  -26.9916 C   0  0  0  0  0  0  0  0  0  0  0  0
  -28.5324   -6.4713  -27.4237 F   0  0  0  0  0  0  0  0  0  0  0  0
  -27.9859   -8.7559  -26.8206 C   0  0  0  0  0  0  0  0  0  0  0  0
  -27.0743   -9.7180  -26.3909 C   0  0  0  0  0  0  0  0  0  0  0  0
  -25.7496   -9.3674  -26.1296 C   0  0  0  0  0  0  0  0  0  0  0  0
  -25.3509   -8.0492  -26.3036 C   0  0  0  0  0  0  0  0  0  0  0  0
  -24.0912   -7.6182  -26.0793 O   0  0  0  0  0  0  0  0  0  0  0  0
  -23.6295   -8.0842  -24.8218 C   0  0  0  0  0  0  0  0  0  0  0  0
  -28.5112   -0.4470  -29.3627 N   0  0  0  0  0  0  0  0  0  0  0  0
  -29.2302   -0.7019  -29.9851 H   0  0  0  0  0  0  0  0  0  0  0  0
  -28.1025    3.2097  -28.9065 C   0  0  0  0  0  0  0  0  0  0  0  0
  -27.9919    1.9533  -29.5210 C   0  0  0  0  0  0  0  0  0  0  0  0
  -28.7637    3.3691  -27.6817 C   0  0  0  0  0  0  0  0  0  0  0  0
  -29.2913    2.2403  -27.0752 C   0  0  0  0  0  0  0  0  0  0  0  0
  -29.1938    0.9978  -27.6975 C   0  0  0  0  0  0  0  0  0  0  0  0
  -28.5351    0.8258  -28.9069 C   0  0  0  0  0  0  0  0  0  0  0  0
  -28.8759    4.5989  -27.0045 C   0  0  0  0  0  0  0  0  0  0  0  0
  -28.2425    4.8003  -25.9468 O   0  0  0  0  0  0  0  0  0  0  0  0
  -29.4994    5.5559  -27.5120 O   0  0  0  0  0  0  0  0  0  0  0  0
  -29.9826    5.4322  -28.3052 H   0  0  0  0  0  0  0  0  0  0  0  0
  -26.6722    4.1641  -30.5538 C   0  0  0  0  0  0  0  0  0  0  0  0
  -27.5999    4.3472  -29.4690 O   0  0  0  0  0  0  0  0  0  0  0  0
  4  3  2  0  0  0
  4  5  1  0  0  0
  3  1  1  0  0  0
  6  5  1  0  0  0
  6  7  1  0  0  0
  5  8  2  0  0  0
  1 26  1  0  0  0
  1  2  2  0  0  0
 26 33  1  0  0  0
  8  2  1  0  0  0
  8  9  1  0  0  0
  7 16  2  0  0  0
 25 24  1  0  0  0
 32 33  2  0  0  0
 32 31  1  0  0  0
 33 29  1  0  0  0
 24 23  1  0  0  0
  9 10  2  0  0  0
  9 15  1  0  0  0
 10 11  1  0  0  0
 16 15  1  0  0  0
 16 17  1  0  0  0
 15 14  2  0  0  0
 31 30  2  0  0  0
 29 28  2  0  0  0
 11 12  2  0  0  0
 14 12  1  0  0  0
 23 17  2  0  0  0
 23 22  1  0  0  0
 17 18  1  0  0  0
 12 13  1  0  0  0
 30 28  1  0  0  0
 30 34  1  0  0  0
 28 39  1  0  0  0
 22 21  2  0  0  0
 35 34  2  0  0  0
 18 19  1  0  0  0
 18 20  2  0  0  0
 34 36  1  0  0  0
 39 38  1  0  0  0
 21 20  1  0  0  0
 36 37  1  0  0  0
 26 27  1  0  0  0
M  END
> <minimizedAffinity>
-8.26646

$$$$
5IA0_A5B_A_1001


 39 43  0  0  0  0  0  0  0  0999 V2000
  -27.9747   -3.5527  -26.2831 C   0  0  0  0  0  0  0  0  0  0  0  0
  -27.8811   -2.3990  -26.9661 N   0  0  0  0  0  0  0  0  0  0  0  0
  -27.6689   -3.5827  -24.9640 N   0  0  0  0  0  0  0  0  0  0  0  0
  -27.2923   -2.4136  -24.2941 C   0  0  0  0  0  0  0  0  0  0  0  0
  -27.2298   -1.2318  -25.0135 C   0  0  0  0  0  0  0  0  0  0  0  0
  -26.8269   -0.1524  -24.2254 C   0  0  0  0  0  0  0  0  0  0  0  0
  -27.7651    0.9752  -24.3956 N   0  0  0  0  0  0  0  0  0  0  0  0
  -27.5418   -1.2505  -26.3657 C   0  0  0  0  0  0  0  0  0  0  0  0
  -27.4907   -0.1432  -27.2020 C   0  0  0  0  0  0  0  0  0  0  0  0
  -27.1429   -0.4505  -28.5174 C   0  0  0  0  0  0  0  0  0  0  0  0
  -27.0158    0.5854  -29.4409 C   0  0  0  0  0  0  0  0  0  0  0  0
  -27.2505    1.9033  -29.0497 C   0  0  0  0  0  0  0  0  0  0  0  0
  -27.0981    3.2262  -30.1871 Cl  0  0  0  0  0  0  0  0  0  0  0  0
  -27.6167    2.1921  -27.7396 C   0  0  0  0  0  0  0  0  0  0  0  0
  -27.7110    1.1683  -26.8065 C   0  0  0  0  0  0  0  0  0  0  0  0
  -28.1039    1.5848  -25.5268 C   0  0  0  0  0  0  0  0  0  0  0  0
  -29.0739    2.5807  -25.3976 C   0  0  0  0  0  0  0  0  0  0  0  0
  -28.7026    3.9223  -25.2181 C   0  0  0  0  0  0  0  0  0  0  0  0
  -27.3291    4.3121  -25.1155 F   0  0  0  0  0  0  0  0  0  0  0  0
  -29.6792    4.9106  -25.1005 C   0  0  0  0  0  0  0  0  0  0  0  0
  -31.0258    4.5630  -25.1852 C   0  0  0  0  0  0  0  0  0  0  0  0
  -31.3999    3.2339  -25.3843 C   0  0  0  0  0  0  0  0  0  0  0  0
  -30.4146    2.2627  -25.4976 C   0  0  0  0  0  0  0  0  0  0  0  0
  -30.6807    0.9538  -25.6948 O   0  0  0  0  0  0  0  0  0  0  0  0
  -31.4349    0.7799  -26.8833 C   0  0  0  0  0  0  0  0  0  0  0  0
  -28.3055   -4.7312  -26.8310 N   0  0  0  0  0  0  0  0  0  0  0  0
  -29.2372   -4.8257  -27.1348 H   0  0  0  0  0  0  0  0  0  0  0  0
  -26.7494   -8.0963  -26.7926 C   0  0  0  0  0  0  0  0  0  0  0  0
  -27.6867   -7.0913  -26.5097 C   0  0  0  0  0  0  0  0  0  0  0  0
  -25.6245   -7.8442  -27.5886 C   0  0  0  0  0  0  0  0  0  0  0  0
  -25.4466   -6.5590  -28.0756 C   0  0  0  0  0  0  0  0  0  0  0  0
  -26.3887   -5.5688  -27.8060 C   0  0  0  0  0  0  0  0  0  0  0  0
  -27.5032   -5.8043  -27.0131 C   0  0  0  0  0  0  0  0  0  0  0  0
  -24.6359   -8.8049  -27.8773 C   0  0  0  0  0  0  0  0  0  0  0  0
  -24.7771   -9.5910  -28.8378 O   0  0  0  0  0  0  0  0  0  0  0  0
  -23.5442   -8.8044  -27.2688 O   0  0  0  0  0  0  0  0  0  0  0  0
  -23.4117   -8.2247  -26.5446 H   0  0  0  0  0  0  0  0  0  0  0  0
  -26.8050   -9.5534  -24.9100 C   0  0  0  0  0  0  0  0  0  0  0  0
  -26.8861   -9.3752  -26.3358 O   0  0  0  0  0  0  0  0  0  0  0  0
  4  3  2  0  0  0
  4  5  1  0  0  0
  3  1  1  0  0  0
  6  5  1  0  0  0
  6  7  1  0  0  0
  5  8  2  0  0  0
  1 26  1  0  0  0
  1  2  2  0  0  0
 26 33  1  0  0  0
  8  2  1  0  0  0
  8  9  1  0  0  0
  7 16  2  0  0  0
 25 24  1  0  0  0
 32 33  2  0  0  0
 32 31  1  0  0  0
 33 29  1  0  0  0
 24 23  1  0  0  0
  9 10  2  0  0  0
  9 15  1  0  0  0
 10 11  1  0  0  0
 16 15  1  0  0  0
 16 17  1  0  0  0
 15 14  2  0  0  0
 31 30  2  0  0  0
 29 28  2  0  0  0
 11 12  2  0  0  0
 14 12  1  0  0  0
 23 17  2  0  0  0
 23 22  1  0  0  0
 17 18  1  0  0  0
 12 13  1  0  0  0
 30 28  1  0  0  0
 30 34  1  0  0  0
 28 39  1  0  0  0
 22 21  2  0  0  0
 35 34  2  0  0  0
 18 19  1  0  0  0
 18 20  2  0  0  0
 34 36  1  0  0  0
 39 38  1  0  0  0
 21 20  1  0  0  0
 36 37  1  0  0  0
 26 27  1  0  0  0
M  END
> <minimizedAffinity>
-8.17096

$$$$
5IA0_A5B_A_1001


 39 43  0  0  0  0  0  0  0  0999 V2000
  -27.5679   -6.3974  -26.0180 C   0  0  0  0  0  0  0  0  0  0  0  0
  -27.1491   -5.4281  -26.8496 N   0  0  0  0  0  0  0  0  0  0  0  0
  -27.7280   -6.1326  -24.6994 N   0  0  0  0  0  0  0  0  0  0  0  0
  -27.4980   -4.8466  -24.1987 C   0  0  0  0  0  0  0  0  0  0  0  0
  -27.0936   -3.8580  -25.0801 C   0  0  0  0  0  0  0  0  0  0  0  0
  -26.8865   -2.6329  -24.4436 C   0  0  0  0  0  0  0  0  0  0  0  0
  -27.6100   -1.5631  -25.1597 N   0  0  0  0  0  0  0  0  0  0  0  0
  -26.9324   -4.1774  -26.4211 C   0  0  0  0  0  0  0  0  0  0  0  0
  -26.5059   -3.2875  -27.3979 C   0  0  0  0  0  0  0  0  0  0  0  0
  -25.7638   -3.8866  -28.4157 C   0  0  0  0  0  0  0  0  0  0  0  0
  -25.2429   -3.0867  -29.4310 C   0  0  0  0  0  0  0  0  0  0  0  0
  -25.4791   -1.7121  -29.4287 C   0  0  0  0  0  0  0  0  0  0  0  0
  -24.8373   -0.6810  -30.6902 Cl  0  0  0  0  0  0  0  0  0  0  0  0
  -26.2382   -1.1321  -28.4181 C   0  0  0  0  0  0  0  0  0  0  0  0
  -26.7306   -1.9184  -27.3852 C   0  0  0  0  0  0  0  0  0  0  0  0
  -27.4933   -1.2204  -26.4384 C   0  0  0  0  0  0  0  0  0  0  0  0
  -28.3588   -0.2111  -26.8643 C   0  0  0  0  0  0  0  0  0  0  0  0
  -29.5957   -0.5278  -27.4471 C   0  0  0  0  0  0  0  0  0  0  0  0
  -29.9944   -1.8849  -27.6675 F   0  0  0  0  0  0  0  0  0  0  0  0
  -30.4573    0.4879  -27.8597 C   0  0  0  0  0  0  0  0  0  0  0  0
  -30.0944    1.8196  -27.6694 C   0  0  0  0  0  0  0  0  0  0  0  0
  -28.8753    2.1399  -27.0718 C   0  0  0  0  0  0  0  0  0  0  0  0
  -28.0290    1.1161  -26.6686 C   0  0  0  0  0  0  0  0  0  0  0  0
  -26.8331    1.3293  -26.0792 O   0  0  0  0  0  0  0  0  0  0  0  0
  -26.7294    2.6782  -25.6534 C   0  0  0  0  0  0  0  0  0  0  0  0
  -27.7970   -7.6655  -26.3893 N   0  0  0  0  0  0  0  0  0  0  0  0
  -28.6780   -8.0371  -26.1550 H   0  0  0  0  0  0  0  0  0  0  0  0
  -24.8808   -9.6467  -27.5374 C   0  0  0  0  0  0  0  0  0  0  0  0
  -25.6212   -8.7604  -26.7405 C   0  0  0  0  0  0  0  0  0  0  0  0
  -25.4533  -10.2884  -28.6433 C   0  0  0  0  0  0  0  0  0  0  0  0
  -26.7755  -10.0058  -28.9472 C   0  0  0  0  0  0  0  0  0  0  0  0
  -27.5114   -9.1383  -28.1431 C   0  0  0  0  0  0  0  0  0  0  0  0
  -26.9537   -8.4911  -27.0494 C   0  0  0  0  0  0  0  0  0  0  0  0
  -24.7492  -11.1605  -29.4961 C   0  0  0  0  0  0  0  0  0  0  0  0
  -24.4973  -10.8294  -30.6739 O   0  0  0  0  0  0  0  0  0  0  0  0
  -24.2476  -12.2185  -29.0588 O   0  0  0  0  0  0  0  0  0  0  0  0
  -24.4203  -12.4902  -28.1788 H   0  0  0  0  0  0  0  0  0  0  0  0
  -23.0028   -9.3419  -26.1054 C   0  0  0  0  0  0  0  0  0  0  0  0
  -23.5777   -9.9551  -27.2736 O   0  0  0  0  0  0  0  0  0  0  0  0
  4  3  2  0  0  0
  4  5  1  0  0  0
  3  1  1  0  0  0
  6  5  1  0  0  0
  6  7  1  0  0  0
  5  8  2  0  0  0
  1 26  1  0  0  0
  1  2  2  0  0  0
 26 33  1  0  0  0
  8  2  1  0  0  0
  8  9  1  0  0  0
  7 16  2  0  0  0
 25 24  1  0  0  0
 32 33  2  0  0  0
 32 31  1  0  0  0
 33 29  1  0  0  0
 24 23  1  0  0  0
  9 10  2  0  0  0
  9 15  1  0  0  0
 10 11  1  0  0  0
 16 15  1  0  0  0
 16 17  1  0  0  0
 15 14  2  0  0  0
 31 30  2  0  0  0
 29 28  2  0  0  0
 11 12  2  0  0  0
 14 12  1  0  0  0
 23 17  2  0  0  0
 23 22  1  0  0  0
 17 18  1  0  0  0
 12 13  1  0  0  0
 30 28  1  0  0  0
 30 34  1  0  0  0
 28 39  1  0  0  0
 22 21  2  0  0  0
 35 34  2  0  0  0
 18 19  1  0  0  0
 18 20  2  0  0  0
 34 36  1  0  0  0
 39 38  1  0  0  0
 21 20  1  0  0  0
 36 37  1  0  0  0
 26 27  1  0  0  0
M  END
> <minimizedAffinity>
-7.98748

$$$$
5IA0_A5B_A_1001


 39 43  0  0  0  0  0  0  0  0999 V2000
  -26.9497   -4.1950  -27.4242 C   0  0  0  0  0  0  0  0  0  0  0  0
  -27.0797   -2.9575  -27.9322 N   0  0  0  0  0  0  0  0  0  0  0  0
  -26.8449   -4.3669  -26.0848 N   0  0  0  0  0  0  0  0  0  0  0  0
  -26.9090   -3.2696  -25.2193 C   0  0  0  0  0  0  0  0  0  0  0  0
  -27.0709   -2.0072  -25.7652 C   0  0  0  0  0  0  0  0  0  0  0  0
  -27.1026   -1.0085  -24.7904 C   0  0  0  0  0  0  0  0  0  0  0  0
  -28.2806   -0.1414  -24.9938 N   0  0  0  0  0  0  0  0  0  0  0  0
  -27.1633   -1.8775  -27.1439 C   0  0  0  0  0  0  0  0  0  0  0  0
  -27.2983   -0.6694  -27.8149 C   0  0  0  0  0  0  0  0  0  0  0  0
  -26.6897   -0.6549  -29.0699 C   0  0  0  0  0  0  0  0  0  0  0  0
  -26.7199    0.5188  -29.8205 C   0  0  0  0  0  0  0  0  0  0  0  0
  -27.3648    1.6507  -29.3225 C   0  0  0  0  0  0  0  0  0  0  0  0
  -27.4189    3.1401  -30.2419 Cl  0  0  0  0  0  0  0  0  0  0  0  0
  -27.9850    1.6148  -28.0783 C   0  0  0  0  0  0  0  0  0  0  0  0
  -27.9284    0.4592  -27.3107 C   0  0  0  0  0  0  0  0  0  0  0  0
  -28.6048    0.5434  -26.0856 C   0  0  0  0  0  0  0  0  0  0  0  0
  -29.8204    1.2269  -26.0191 C   0  0  0  0  0  0  0  0  0  0  0  0
  -30.9913    0.6574  -26.5433 C   0  0  0  0  0  0  0  0  0  0  0  0
  -30.9764   -0.6138  -27.2012 F   0  0  0  0  0  0  0  0  0  0  0  0
  -32.2022    1.3440  -26.4624 C   0  0  0  0  0  0  0  0  0  0  0  0
  -32.2488    2.5886  -25.8378 C   0  0  0  0  0  0  0  0  0  0  0  0
  -31.0921    3.1499  -25.2967 C   0  0  0  0  0  0  0  0  0  0  0  0
  -29.8948    2.4534  -25.3875 C   0  0  0  0  0  0  0  0  0  0  0  0
  -28.7272    2.9148  -24.8908 O   0  0  0  0  0  0  0  0  0  0  0  0
  -28.4779    4.2286  -25.3631 C   0  0  0  0  0  0  0  0  0  0  0  0
  -26.8574   -5.3101  -28.1634 N   0  0  0  0  0  0  0  0  0  0  0  0
  -27.2513   -5.2706  -29.0649 H   0  0  0  0  0  0  0  0  0  0  0  0
  -26.1780   -8.7810  -27.0508 C   0  0  0  0  0  0  0  0  0  0  0  0
  -26.9285   -7.6439  -27.3859 C   0  0  0  0  0  0  0  0  0  0  0  0
  -24.7801   -8.7880  -27.1430 C   0  0  0  0  0  0  0  0  0  0  0  0
  -24.1493   -7.6252  -27.5558 C   0  0  0  0  0  0  0  0  0  0  0  0
  -24.8996   -6.5043  -27.9037 C   0  0  0  0  0  0  0  0  0  0  0  0
  -26.2842   -6.4825  -27.8097 C   0  0  0  0  0  0  0  0  0  0  0  0
  -23.9756   -9.8884  -26.7886 C   0  0  0  0  0  0  0  0  0  0  0  0
  -23.1936  -10.3959  -27.6201 O   0  0  0  0  0  0  0  0  0  0  0  0
  -23.9271  -10.2932  -25.6071 O   0  0  0  0  0  0  0  0  0  0  0  0
  -24.5025   -9.9295  -24.9633 H   0  0  0  0  0  0  0  0  0  0  0  0
  -27.9027  -10.3865  -27.3950 C   0  0  0  0  0  0  0  0  0  0  0  0
  -26.7577   -9.9470  -26.6419 O   0  0  0  0  0  0  0  0  0  0  0  0
  4  3  2  0  0  0
  4  5  1  0  0  0
  3  1  1  0  0  0
  6  5  1  0  0  0
  6  7  1  0  0  0
  5  8  2  0  0  0
  1 26  1  0  0  0
  1  2  2  0  0  0
 26 33  1  0  0  0
  8  2  1  0  0  0
  8  9  1  0  0  0
  7 16  2  0  0  0
 25 24  1  0  0  0
 32 33  2  0  0  0
 32 31  1  0  0  0
 33 29  1  0  0  0
 24 23  1  0  0  0
  9 10  2  0  0  0
  9 15  1  0  0  0
 10 11  1  0  0  0
 16 15  1  0  0  0
 16 17  1  0  0  0
 15 14  2  0  0  0
 31 30  2  0  0  0
 29 28  2  0  0  0
 11 12  2  0  0  0
 14 12  1  0  0  0
 23 17  2  0  0  0
 23 22  1  0  0  0
 17 18  1  0  0  0
 12 13  1  0  0  0
 30 28  1  0  0  0
 30 34  1  0  0  0
 28 39  1  0  0  0
 22 21  2  0  0  0
 35 34  2  0  0  0
 18 19  1  0  0  0
 18 20  2  0  0  0
 34 36  1  0  0  0
 39 38  1  0  0  0
 21 20  1  0  0  0
 36 37  1  0  0  0
 26 27  1  0  0  0
M  END
> <minimizedAffinity>
-7.70044

$$$$
5IA0_A5B_A_1001


 39 43  0  0  0  0  0  0  0  0999 V2000
  -26.4643   -6.4062  -27.8534 C   0  0  0  0  0  0  0  0  0  0  0  0
  -26.3840   -5.1664  -28.3661 N   0  0  0  0  0  0  0  0  0  0  0  0
  -26.4649   -6.5823  -26.5104 N   0  0  0  0  0  0  0  0  0  0  0  0
  -26.4212   -5.4813  -25.6483 C   0  0  0  0  0  0  0  0  0  0  0  0
  -26.3665   -4.2125  -26.2006 C   0  0  0  0  0  0  0  0  0  0  0  0
  -26.3115   -3.2130  -25.2277 C   0  0  0  0  0  0  0  0  0  0  0  0
  -27.3378   -2.1866  -25.4995 N   0  0  0  0  0  0  0  0  0  0  0  0
  -26.3574   -4.0803  -27.5822 C   0  0  0  0  0  0  0  0  0  0  0  0
  -26.2766   -2.8700  -28.2580 C   0  0  0  0  0  0  0  0  0  0  0  0
  -25.5990   -2.9520  -29.4744 C   0  0  0  0  0  0  0  0  0  0  0  0
  -25.4149   -1.7913  -30.2234 C   0  0  0  0  0  0  0  0  0  0  0  0
  -25.9181   -0.5749  -29.7627 C   0  0  0  0  0  0  0  0  0  0  0  0
  -25.7020    0.9004  -30.6810 Cl  0  0  0  0  0  0  0  0  0  0  0  0
  -26.6095   -0.5125  -28.5577 C   0  0  0  0  0  0  0  0  0  0  0  0
  -26.7659   -1.6589  -27.7902 C   0  0  0  0  0  0  0  0  0  0  0  0
  -27.4944   -1.4696  -26.6075 C   0  0  0  0  0  0  0  0  0  0  0  0
  -28.6005   -0.6176  -26.6123 C   0  0  0  0  0  0  0  0  0  0  0  0
  -29.8317   -1.0460  -27.1324 C   0  0  0  0  0  0  0  0  0  0  0  0
  -29.9879   -2.3444  -27.7144 F   0  0  0  0  0  0  0  0  0  0  0  0
  -30.9328   -0.1907  -27.1230 C   0  0  0  0  0  0  0  0  0  0  0  0
  -30.8113    1.0839  -26.5735 C   0  0  0  0  0  0  0  0  0  0  0  0
  -29.5955    1.5074  -26.0364 C   0  0  0  0  0  0  0  0  0  0  0  0
  -28.5091    0.6435  -26.0555 C   0  0  0  0  0  0  0  0  0  0  0  0
  -27.2961    0.9639  -25.5565 O   0  0  0  0  0  0  0  0  0  0  0  0
  -26.8960    2.2425  -26.0222 C   0  0  0  0  0  0  0  0  0  0  0  0
  -26.4903   -7.5280  -28.5878 N   0  0  0  0  0  0  0  0  0  0  0  0
  -26.6147   -7.4126  -29.5576 H   0  0  0  0  0  0  0  0  0  0  0  0
  -27.0844  -10.9962  -27.4193 C   0  0  0  0  0  0  0  0  0  0  0  0
  -27.3898   -9.7063  -27.8792 C   0  0  0  0  0  0  0  0  0  0  0  0
  -25.7597  -11.4105  -27.2295 C   0  0  0  0  0  0  0  0  0  0  0  0
  -24.7491  -10.4982  -27.4882 C   0  0  0  0  0  0  0  0  0  0  0  0
  -25.0565   -9.2243  -27.9608 C   0  0  0  0  0  0  0  0  0  0  0  0
  -26.3648   -8.7998  -28.1459 C   0  0  0  0  0  0  0  0  0  0  0  0
  -25.3968  -12.6801  -26.7395 C   0  0  0  0  0  0  0  0  0  0  0  0
  -24.5964  -13.3995  -27.3737 O   0  0  0  0  0  0  0  0  0  0  0  0
  -25.7585  -13.0564  -25.6038 O   0  0  0  0  0  0  0  0  0  0  0  0
  -26.3582  -12.5357  -25.1067 H   0  0  0  0  0  0  0  0  0  0  0  0
  -29.0096  -11.5760  -26.1434 C   0  0  0  0  0  0  0  0  0  0  0  0
  -28.0473  -11.9266  -27.1545 O   0  0  0  0  0  0  0  0  0  0  0  0
  4  3  2  0  0  0
  4  5  1  0  0  0
  3  1  1  0  0  0
  6  5  1  0  0  0
  6  7  1  0  0  0
  5  8  2  0  0  0
  1 26  1  0  0  0
  1  2  2  0  0  0
 26 33  1  0  0  0
  8  2  1  0  0  0
  8  9  1  0  0  0
  7 16  2  0  0  0
 25 24  1  0  0  0
 32 33  2  0  0  0
 32 31  1  0  0  0
 33 29  1  0  0  0
 24 23  1  0  0  0
  9 10  2  0  0  0
  9 15  1  0  0  0
 10 11  1  0  0  0
 16 15  1  0  0  0
 16 17  1  0  0  0
 15 14  2  0  0  0
 31 30  2  0  0  0
 29 28  2  0  0  0
 11 12  2  0  0  0
 14 12  1  0  0  0
 23 17  2  0  0  0
 23 22  1  0  0  0
 17 18  1  0  0  0
 12 13  1  0  0  0
 30 28  1  0  0  0
 30 34  1  0  0  0
 28 39  1  0  0  0
 22 21  2  0  0  0
 35 34  2  0  0  0
 18 19  1  0  0  0
 18 20  2  0  0  0
 34 36  1  0  0  0
 39 38  1  0  0  0
 21 20  1  0  0  0
 36 37  1  0  0  0
 26 27  1  0  0  0
M  END
> <minimizedAffinity>
-7.62512

$$$$
