4HLA_017_A_200


 42 45  0  0  0  0  0  0  0  0999 V2000
    9.3072  -16.9809   -1.1104 C   0  0  0  0  0  0  0  0  0  0  0  0
   10.0342  -18.1869   -1.3421 O   0  0  0  0  0  0  0  0  0  0  0  0
    9.8891  -18.4817   -2.2547 H   0  0  0  0  0  0  0  0  0  0  0  0
    7.8123  -17.2050   -1.2955 C   0  0  0  0  0  0  0  0  0  0  0  0
    7.2287  -17.4960    0.0265 N   0  0  0  0  0  0  0  0  0  0  0  0
    6.9942  -16.1388    0.8851 S   0  0  0  0  0  0  0  0  0  0  0  0
    5.8085  -16.2845    1.6750 O   0  0  0  0  0  0  0  0  0  0  0  0
    6.7941  -15.0882   -0.0461 O   0  0  0  0  0  0  0  0  0  0  0  0
   11.2738  -14.9282    4.5202 N   0  0  0  0  0  0  0  0  0  0  0  0
   10.2570  -15.1814    3.6604 C   0  0  0  0  0  0  0  0  0  0  0  0
    9.3779  -14.1719    3.2714 C   0  0  0  0  0  0  0  0  0  0  0  0
    8.3378  -14.4589    2.3916 C   0  0  0  0  0  0  0  0  0  0  0  0
    8.1797  -15.7504    1.8875 C   0  0  0  0  0  0  0  0  0  0  0  0
    9.0529  -16.7483    2.2962 C   0  0  0  0  0  0  0  0  0  0  0  0
   10.0892  -16.4670    3.1725 C   0  0  0  0  0  0  0  0  0  0  0  0
   11.4041  -14.0189    4.8744 H   0  0  0  0  0  0  0  0  0  0  0  0
   11.8820  -15.6536    4.7905 H   0  0  0  0  0  0  0  0  0  0  0  0
    5.9791  -18.2623   -0.1049 C   0  0  0  0  0  0  0  0  0  0  0  0
    5.2720  -18.0356   -1.4429 C   0  0  0  0  0  0  0  0  0  0  0  0
    4.8604  -19.3431   -2.0924 C   0  0  0  0  0  0  0  0  0  0  0  0
    4.0757  -17.0964   -1.3371 C   0  0  0  0  0  0  0  0  0  0  0  0
    9.7841  -15.8678   -2.0357 C   0  0  0  0  0  0  0  0  0  0  0  0
    8.8403  -15.8746   -3.1297 N   0  0  0  0  0  0  0  0  0  0  0  0
    8.9619  -15.0921   -4.1950 C   0  0  0  0  0  0  0  0  0  0  0  0
    9.8708  -14.3025   -4.3674 O   0  0  0  0  0  0  0  0  0  0  0  0
    8.0716  -16.4879   -3.0829 H   0  0  0  0  0  0  0  0  0  0  0  0
    7.9234  -15.2438   -5.1929 O   0  0  0  0  0  0  0  0  0  0  0  0
    8.2834  -15.2071   -6.5589 C   0  0  0  0  0  0  0  0  0  0  0  0
    9.4385  -16.1835   -6.6371 C   0  0  0  0  0  0  0  0  0  0  0  0
    8.8065  -17.4658   -6.6854 O   0  0  0  0  0  0  0  0  0  0  0  0
    7.5045  -17.3531   -7.2771 C   0  0  0  0  0  0  0  0  0  0  0  0
    6.5023  -17.9425   -6.4414 O   0  0  0  0  0  0  0  0  0  0  0  0
    5.5013  -17.0017   -6.0580 C   0  0  0  0  0  0  0  0  0  0  0  0
    5.7968  -15.7189   -6.8170 C   0  0  0  0  0  0  0  0  0  0  0  0
    7.1960  -15.8761   -7.3689 C   0  0  0  0  0  0  0  0  0  0  0  0
    9.6195  -14.5047   -1.3798 C   0  0  0  0  0  0  0  0  0  0  0  0
   10.9530  -13.0142    0.1184 C   0  0  0  0  0  0  0  0  0  0  0  0
   12.0067  -12.7915    0.9955 C   0  0  0  0  0  0  0  0  0  0  0  0
   12.8675  -13.8260    1.3345 C   0  0  0  0  0  0  0  0  0  0  0  0
   12.6742  -15.0879    0.7793 C   0  0  0  0  0  0  0  0  0  0  0  0
   11.6242  -15.3195   -0.1011 C   0  0  0  0  0  0  0  0  0  0  0  0
   10.7624  -14.2767   -0.4278 C   0  0  0  0  0  0  0  0  0  0  0  0
  9 10  1  0  0  0
 10 11  2  0  0  0
 10 15  1  0  0  0
 11 12  1  0  0  0
 12 13  2  0  0  0
 13 14  1  0  0  0
 13  6  1  0  0  0
 14 15  2  0  0  0
  6  7  2  0  0  0
  6  8  2  0  0  0
  6  5  1  0  0  0
  5 18  1  0  0  0
  5  4  1  0  0  0
 18 19  1  0  0  0
 19 20  1  0  0  0
 19 21  1  0  0  0
  4  1  1  0  0  0
  1  2  1  0  0  0
  1 22  1  0  0  0
 22 23  1  0  0  0
 22 36  1  0  0  0
 23 24  1  0  0  0
 24 25  2  0  0  0
 24 27  1  0  0  0
 27 28  1  0  0  0
 28 29  1  0  0  0
 28 35  1  0  0  0
 29 30  1  0  0  0
 30 31  1  0  0  0
 31 32  1  0  0  0
 31 35  1  0  0  0
 32 33  1  0  0  0
 33 34  1  0  0  0
 34 35  1  0  0  0
 36 42  1  0  0  0
 37 38  2  0  0  0
 37 42  1  0  0  0
 38 39  1  0  0  0
 39 40  2  0  0  0
 40 41  1  0  0  0
 41 42  2  0  0  0
  9 16  1  0  0  0
  9 17  1  0  0  0
  2  3  1  0  0  0
 23 26  1  0  0  0
M  END
> <minimizedAffinity>
-9.92629

$$$$
4HLA_017_A_200


 42 45  0  0  0  0  0  0  0  0999 V2000
    9.5750  -17.3594   -0.2109 C   0  0  0  0  0  0  0  0  0  0  0  0
   10.0022  -18.6945   -0.4782 O   0  0  0  0  0  0  0  0  0  0  0  0
    9.4201  -19.3187   -0.0173 H   0  0  0  0  0  0  0  0  0  0  0  0
    9.6508  -17.0541    1.2792 C   0  0  0  0  0  0  0  0  0  0  0  0
    9.7009  -15.5898    1.4415 N   0  0  0  0  0  0  0  0  0  0  0  0
    8.4971  -15.0548    2.3898 S   0  0  0  0  0  0  0  0  0  0  0  0
    7.2973  -15.7678    2.0687 O   0  0  0  0  0  0  0  0  0  0  0  0
    8.3067  -13.6832    2.0842 O   0  0  0  0  0  0  0  0  0  0  0  0
    9.2635  -15.8358    8.0286 N   0  0  0  0  0  0  0  0  0  0  0  0
    9.0952  -15.6208    6.7010 C   0  0  0  0  0  0  0  0  0  0  0  0
    9.3002  -14.3583    6.1467 C   0  0  0  0  0  0  0  0  0  0  0  0
    9.1150  -14.1620    4.7809 C   0  0  0  0  0  0  0  0  0  0  0  0
    8.7374  -15.2272    3.9625 C   0  0  0  0  0  0  0  0  0  0  0  0
    8.5216  -16.4744    4.5311 C   0  0  0  0  0  0  0  0  0  0  0  0
    8.7041  -16.6739    5.8903 C   0  0  0  0  0  0  0  0  0  0  0  0
    9.5412  -15.0960    8.6158 H   0  0  0  0  0  0  0  0  0  0  0  0
    9.1082  -16.7318    8.4058 H   0  0  0  0  0  0  0  0  0  0  0  0
   11.0112  -15.1599    1.9557 C   0  0  0  0  0  0  0  0  0  0  0  0
   11.8139  -14.3376    0.9453 C   0  0  0  0  0  0  0  0  0  0  0  0
   13.0345  -15.0888    0.4488 C   0  0  0  0  0  0  0  0  0  0  0  0
   10.9760  -13.8506   -0.2318 C   0  0  0  0  0  0  0  0  0  0  0  0
    8.1566  -17.1267   -0.7173 C   0  0  0  0  0  0  0  0  0  0  0  0
    8.2766  -17.1449   -2.1570 N   0  0  0  0  0  0  0  0  0  0  0  0
    8.0652  -16.0753   -2.9142 C   0  0  0  0  0  0  0  0  0  0  0  0
    7.7604  -14.9789   -2.4850 O   0  0  0  0  0  0  0  0  0  0  0  0
    8.5267  -17.9895   -2.5967 H   0  0  0  0  0  0  0  0  0  0  0  0
    8.2400  -16.2831   -4.3368 O   0  0  0  0  0  0  0  0  0  0  0  0
    8.3964  -15.1553   -5.1738 C   0  0  0  0  0  0  0  0  0  0  0  0
    9.8328  -15.2691   -5.6405 C   0  0  0  0  0  0  0  0  0  0  0  0
    9.7791  -16.2312   -6.6976 O   0  0  0  0  0  0  0  0  0  0  0  0
    8.4870  -16.2096   -7.3204 C   0  0  0  0  0  0  0  0  0  0  0  0
    7.9149  -17.5212   -7.3736 O   0  0  0  0  0  0  0  0  0  0  0  0
    6.6673  -17.5913   -6.6863 C   0  0  0  0  0  0  0  0  0  0  0  0
    6.3245  -16.1732   -6.2615 C   0  0  0  0  0  0  0  0  0  0  0  0
    7.5935  -15.3692   -6.4369 C   0  0  0  0  0  0  0  0  0  0  0  0
    7.2562  -18.3062   -0.3805 C   0  0  0  0  0  0  0  0  0  0  0  0
    5.1874  -16.9170   -0.5666 C   0  0  0  0  0  0  0  0  0  0  0  0
    3.9200  -16.6771   -1.0818 C   0  0  0  0  0  0  0  0  0  0  0  0
    3.3489  -17.5662   -1.9815 C   0  0  0  0  0  0  0  0  0  0  0  0
    4.0516  -18.7081   -2.3558 C   0  0  0  0  0  0  0  0  0  0  0  0
    5.3192  -18.9577   -1.8438 C   0  0  0  0  0  0  0  0  0  0  0  0
    5.8854  -18.0553   -0.9483 C   0  0  0  0  0  0  0  0  0  0  0  0
  9 10  1  0  0  0
 10 11  2  0  0  0
 10 15  1  0  0  0
 11 12  1  0  0  0
 12 13  2  0  0  0
 13 14  1  0  0  0
 13  6  1  0  0  0
 14 15  2  0  0  0
  6  7  2  0  0  0
  6  8  2  0  0  0
  6  5  1  0  0  0
  5 18  1  0  0  0
  5  4  1  0  0  0
 18 19  1  0  0  0
 19 20  1  0  0  0
 19 21  1  0  0  0
  4  1  1  0  0  0
  1  2  1  0  0  0
  1 22  1  0  0  0
 22 23  1  0  0  0
 22 36  1  0  0  0
 23 24  1  0  0  0
 24 25  2  0  0  0
 24 27  1  0  0  0
 27 28  1  0  0  0
 28 29  1  0  0  0
 28 35  1  0  0  0
 29 30  1  0  0  0
 30 31  1  0  0  0
 31 32  1  0  0  0
 31 35  1  0  0  0
 32 33  1  0  0  0
 33 34  1  0  0  0
 34 35  1  0  0  0
 36 42  1  0  0  0
 37 38  2  0  0  0
 37 42  1  0  0  0
 38 39  1  0  0  0
 39 40  2  0  0  0
 40 41  1  0  0  0
 41 42  2  0  0  0
  9 16  1  0  0  0
  9 17  1  0  0  0
  2  3  1  0  0  0
 23 26  1  0  0  0
M  END
> <minimizedAffinity>
-9.91978

$$$$
4HLA_017_A_200


 42 45  0  0  0  0  0  0  0  0999 V2000
   10.2259  -17.0124    0.7636 C   0  0  0  0  0  0  0  0  0  0  0  0
   11.1791  -18.0484    0.9974 O   0  0  0  0  0  0  0  0  0  0  0  0
   12.0129  -17.8268    0.5541 H   0  0  0  0  0  0  0  0  0  0  0  0
    9.9379  -16.8664   -0.7246 C   0  0  0  0  0  0  0  0  0  0  0  0
    8.6455  -16.1729   -0.8720 N   0  0  0  0  0  0  0  0  0  0  0  0
    8.7896  -14.8315   -1.7744 S   0  0  0  0  0  0  0  0  0  0  0  0
   10.0709  -14.2399   -1.5309 O   0  0  0  0  0  0  0  0  0  0  0  0
    7.7831  -13.9308   -1.3423 O   0  0  0  0  0  0  0  0  0  0  0  0
    8.5461  -15.6525   -7.4543 N   0  0  0  0  0  0  0  0  0  0  0  0
    8.5714  -15.4501   -6.1143 C   0  0  0  0  0  0  0  0  0  0  0  0
    7.4849  -14.8785   -5.4542 C   0  0  0  0  0  0  0  0  0  0  0  0
    7.5380  -14.6756   -4.0778 C   0  0  0  0  0  0  0  0  0  0  0  0
    8.6695  -15.0543   -3.3546 C   0  0  0  0  0  0  0  0  0  0  0  0
    9.7494  -15.6075   -4.0277 C   0  0  0  0  0  0  0  0  0  0  0  0
    9.7010  -15.8104   -5.3979 C   0  0  0  0  0  0  0  0  0  0  0  0
    7.7494  -15.4010   -7.9751 H   0  0  0  0  0  0  0  0  0  0  0  0
    9.3243  -16.0512   -7.9067 H   0  0  0  0  0  0  0  0  0  0  0  0
    7.6219  -17.0751   -1.4238 C   0  0  0  0  0  0  0  0  0  0  0  0
    6.5175  -17.4169   -0.4214 C   0  0  0  0  0  0  0  0  0  0  0  0
    6.6700  -18.8220    0.1293 C   0  0  0  0  0  0  0  0  0  0  0  0
    6.4095  -16.4097    0.7181 C   0  0  0  0  0  0  0  0  0  0  0  0
   10.7109  -15.6840    1.3316 C   0  0  0  0  0  0  0  0  0  0  0  0
   10.7910  -15.9052    2.7572 N   0  0  0  0  0  0  0  0  0  0  0  0
    9.8492  -15.5097    3.6048 C   0  0  0  0  0  0  0  0  0  0  0  0
    8.8286  -14.9344    3.2783 O   0  0  0  0  0  0  0  0  0  0  0  0
   11.5805  -16.3709    3.1164 H   0  0  0  0  0  0  0  0  0  0  0  0
   10.0996  -15.8261    4.9958 O   0  0  0  0  0  0  0  0  0  0  0  0
    9.4773  -15.0421    5.9933 C   0  0  0  0  0  0  0  0  0  0  0  0
    9.2442  -16.0332    7.1147 C   0  0  0  0  0  0  0  0  0  0  0  0
   10.5135  -16.1232    7.7680 O   0  0  0  0  0  0  0  0  0  0  0  0
   11.2417  -14.8981    7.6040 C   0  0  0  0  0  0  0  0  0  0  0  0
   12.5542  -15.1404    7.0852 O   0  0  0  0  0  0  0  0  0  0  0  0
   12.7734  -14.4716    5.8449 C   0  0  0  0  0  0  0  0  0  0  0  0
   11.5492  -13.6067    5.5948 C   0  0  0  0  0  0  0  0  0  0  0  0
   10.4967  -14.0856    6.5696 C   0  0  0  0  0  0  0  0  0  0  0  0
   12.1393  -15.3926    0.8956 C   0  0  0  0  0  0  0  0  0  0  0  0
   13.7727  -14.0982    2.2743 C   0  0  0  0  0  0  0  0  0  0  0  0
   14.2023  -12.9209    2.8730 C   0  0  0  0  0  0  0  0  0  0  0  0
   13.4651  -11.7534    2.7329 C   0  0  0  0  0  0  0  0  0  0  0  0
   12.2839  -11.7732    1.9965 C   0  0  0  0  0  0  0  0  0  0  0  0
   11.8450  -12.9471    1.3959 C   0  0  0  0  0  0  0  0  0  0  0  0
   12.5963  -14.1100    1.5364 C   0  0  0  0  0  0  0  0  0  0  0  0
  9 10  1  0  0  0
 10 11  2  0  0  0
 10 15  1  0  0  0
 11 12  1  0  0  0
 12 13  2  0  0  0
 13 14  1  0  0  0
 13  6  1  0  0  0
 14 15  2  0  0  0
  6  7  2  0  0  0
  6  8  2  0  0  0
  6  5  1  0  0  0
  5 18  1  0  0  0
  5  4  1  0  0  0
 18 19  1  0  0  0
 19 20  1  0  0  0
 19 21  1  0  0  0
  4  1  1  0  0  0
  1  2  1  0  0  0
  1 22  1  0  0  0
 22 23  1  0  0  0
 22 36  1  0  0  0
 23 24  1  0  0  0
 24 25  2  0  0  0
 24 27  1  0  0  0
 27 28  1  0  0  0
 28 29  1  0  0  0
 28 35  1  0  0  0
 29 30  1  0  0  0
 30 31  1  0  0  0
 31 32  1  0  0  0
 31 35  1  0  0  0
 32 33  1  0  0  0
 33 34  1  0  0  0
 34 35  1  0  0  0
 36 42  1  0  0  0
 37 38  2  0  0  0
 37 42  1  0  0  0
 38 39  1  0  0  0
 39 40  2  0  0  0
 40 41  1  0  0  0
 41 42  2  0  0  0
  9 16  1  0  0  0
  9 17  1  0  0  0
  2  3  1  0  0  0
 23 26  1  0  0  0
M  END
> <minimizedAffinity>
-9.83564

$$$$
4HLA_017_A_200


 42 45  0  0  0  0  0  0  0  0999 V2000
   11.5941  -15.7375    0.6394 C   0  0  0  0  0  0  0  0  0  0  0  0
   11.0208  -15.2133   -0.5577 O   0  0  0  0  0  0  0  0  0  0  0  0
   10.1575  -14.8192   -0.3571 H   0  0  0  0  0  0  0  0  0  0  0  0
   10.7106  -16.8275    1.2315 C   0  0  0  0  0  0  0  0  0  0  0  0
    9.3384  -16.6212    0.7339 N   0  0  0  0  0  0  0  0  0  0  0  0
    8.9036  -17.7842   -0.3116 S   0  0  0  0  0  0  0  0  0  0  0  0
    7.9243  -18.6264    0.3071 O   0  0  0  0  0  0  0  0  0  0  0  0
   10.0630  -18.5555   -0.5796 O   0  0  0  0  0  0  0  0  0  0  0  0
    6.7995  -15.8286   -5.2857 N   0  0  0  0  0  0  0  0  0  0  0  0
    7.2658  -16.3019   -4.1043 C   0  0  0  0  0  0  0  0  0  0  0  0
    6.3973  -16.8250   -3.1477 C   0  0  0  0  0  0  0  0  0  0  0  0
    6.9007  -17.2995   -1.9395 C   0  0  0  0  0  0  0  0  0  0  0  0
    8.2728  -17.2655   -1.6877 C   0  0  0  0  0  0  0  0  0  0  0  0
    9.1232  -16.7274   -2.6430 C   0  0  0  0  0  0  0  0  0  0  0  0
    8.6261  -16.2532   -3.8467 C   0  0  0  0  0  0  0  0  0  0  0  0
    5.8350  -15.8574   -5.4813 H   0  0  0  0  0  0  0  0  0  0  0  0
    7.4252  -15.4561   -5.9483 H   0  0  0  0  0  0  0  0  0  0  0  0
    8.3814  -16.5256    1.8479 C   0  0  0  0  0  0  0  0  0  0  0  0
    7.3245  -15.4384    1.6417 C   0  0  0  0  0  0  0  0  0  0  0  0
    7.8243  -14.3301    0.7347 C   0  0  0  0  0  0  0  0  0  0  0  0
    5.9957  -15.9835    1.1301 C   0  0  0  0  0  0  0  0  0  0  0  0
   11.8183  -14.6351    1.6675 C   0  0  0  0  0  0  0  0  0  0  0  0
   11.4116  -15.2211    2.9240 N   0  0  0  0  0  0  0  0  0  0  0  0
   10.5224  -14.6561    3.7316 C   0  0  0  0  0  0  0  0  0  0  0  0
    9.9561  -13.6046    3.5017 O   0  0  0  0  0  0  0  0  0  0  0  0
   11.8124  -16.0789    3.1936 H   0  0  0  0  0  0  0  0  0  0  0  0
   10.2346  -15.3942    4.9440 O   0  0  0  0  0  0  0  0  0  0  0  0
    9.0948  -15.0399    5.7004 C   0  0  0  0  0  0  0  0  0  0  0  0
    8.5322  -16.3808    6.1242 C   0  0  0  0  0  0  0  0  0  0  0  0
    9.3402  -16.7585    7.2425 O   0  0  0  0  0  0  0  0  0  0  0  0
    9.8423  -15.5902    7.9064 C   0  0  0  0  0  0  0  0  0  0  0  0
   11.2642  -15.6540    8.0638 O   0  0  0  0  0  0  0  0  0  0  0  0
   11.9247  -14.5631    7.4255 C   0  0  0  0  0  0  0  0  0  0  0  0
   10.8362  -13.6301    6.9218 C   0  0  0  0  0  0  0  0  0  0  0  0
    9.5465  -14.4160    7.0015 C   0  0  0  0  0  0  0  0  0  0  0  0
   13.3011  -14.3357    1.8323 C   0  0  0  0  0  0  0  0  0  0  0  0
   13.2106  -11.8870    2.3225 C   0  0  0  0  0  0  0  0  0  0  0  0
   13.3626  -10.8077    3.1835 C   0  0  0  0  0  0  0  0  0  0  0  0
   13.7624  -11.0095    4.4971 C   0  0  0  0  0  0  0  0  0  0  0  0
   14.0218  -12.3023    4.9434 C   0  0  0  0  0  0  0  0  0  0  0  0
   13.8748  -13.3881    4.0885 C   0  0  0  0  0  0  0  0  0  0  0  0
   13.4657  -13.1748    2.7755 C   0  0  0  0  0  0  0  0  0  0  0  0
  9 10  1  0  0  0
 10 11  2  0  0  0
 10 15  1  0  0  0
 11 12  1  0  0  0
 12 13  2  0  0  0
 13 14  1  0  0  0
 13  6  1  0  0  0
 14 15  2  0  0  0
  6  7  2  0  0  0
  6  8  2  0  0  0
  6  5  1  0  0  0
  5 18  1  0  0  0
  5  4  1  0  0  0
 18 19  1  0  0  0
 19 20  1  0  0  0
 19 21  1  0  0  0
  4  1  1  0  0  0
  1  2  1  0  0  0
  1 22  1  0  0  0
 22 23  1  0  0  0
 22 36  1  0  0  0
 23 24  1  0  0  0
 24 25  2  0  0  0
 24 27  1  0  0  0
 27 28  1  0  0  0
 28 29  1  0  0  0
 28 35  1  0  0  0
 29 30  1  0  0  0
 30 31  1  0  0  0
 31 32  1  0  0  0
 31 35  1  0  0  0
 32 33  1  0  0  0
 33 34  1  0  0  0
 34 35  1  0  0  0
 36 42  1  0  0  0
 37 38  2  0  0  0
 37 42  1  0  0  0
 38 39  1  0  0  0
 39 40  2  0  0  0
 40 41  1  0  0  0
 41 42  2  0  0  0
  9 16  1  0  0  0
  9 17  1  0  0  0
  2  3  1  0  0  0
 23 26  1  0  0  0
M  END
> <minimizedAffinity>
-9.11623

$$$$
4HLA_017_A_200


 42 45  0  0  0  0  0  0  0  0999 V2000
    8.4773  -16.8520   -1.9968 C   0  0  0  0  0  0  0  0  0  0  0  0
    9.6821  -17.6120   -1.9113 O   0  0  0  0  0  0  0  0  0  0  0  0
   10.0902  -17.6709   -2.7893 H   0  0  0  0  0  0  0  0  0  0  0  0
    7.4785  -17.5225   -2.9307 C   0  0  0  0  0  0  0  0  0  0  0  0
    6.1565  -17.4941   -2.2792 N   0  0  0  0  0  0  0  0  0  0  0  0
    5.1314  -18.5476   -2.9673 S   0  0  0  0  0  0  0  0  0  0  0  0
    4.7529  -19.5320   -1.9984 O   0  0  0  0  0  0  0  0  0  0  0  0
    5.8382  -19.1895   -4.0158 O   0  0  0  0  0  0  0  0  0  0  0  0
    0.3675  -16.2324   -5.1898 N   0  0  0  0  0  0  0  0  0  0  0  0
    1.4770  -16.7791   -4.6354 C   0  0  0  0  0  0  0  0  0  0  0  0
    1.5919  -16.9243   -3.2538 C   0  0  0  0  0  0  0  0  0  0  0  0
    2.7444  -17.4836   -2.7087 C   0  0  0  0  0  0  0  0  0  0  0  0
    3.7797  -17.9113   -3.5407 C   0  0  0  0  0  0  0  0  0  0  0  0
    3.6576  -17.7456   -4.9130 C   0  0  0  0  0  0  0  0  0  0  0  0
    2.5123  -17.1886   -5.4597 C   0  0  0  0  0  0  0  0  0  0  0  0
   -0.3755  -15.9372   -4.6152 H   0  0  0  0  0  0  0  0  0  0  0  0
    0.3046  -16.1305   -6.1669 H   0  0  0  0  0  0  0  0  0  0  0  0
    6.2752  -17.7382   -0.8327 C   0  0  0  0  0  0  0  0  0  0  0  0
    5.8941  -16.5232    0.0159 C   0  0  0  0  0  0  0  0  0  0  0  0
    4.4275  -16.5424    0.4026 C   0  0  0  0  0  0  0  0  0  0  0  0
    6.7671  -16.3600    1.2552 C   0  0  0  0  0  0  0  0  0  0  0  0
    8.7586  -15.4312   -2.4706 C   0  0  0  0  0  0  0  0  0  0  0  0
    9.5266  -14.8362   -1.4011 N   0  0  0  0  0  0  0  0  0  0  0  0
    8.9977  -14.0195   -0.4983 C   0  0  0  0  0  0  0  0  0  0  0  0
    7.8260  -13.6946   -0.4684 O   0  0  0  0  0  0  0  0  0  0  0  0
   10.4864  -15.0462   -1.3392 H   0  0  0  0  0  0  0  0  0  0  0  0
    9.9209  -13.5268    0.5030 O   0  0  0  0  0  0  0  0  0  0  0  0
   11.3046  -13.7449    0.3168 C   0  0  0  0  0  0  0  0  0  0  0  0
   11.9054  -12.3770    0.5656 C   0  0  0  0  0  0  0  0  0  0  0  0
   11.9621  -12.2768    1.9914 O   0  0  0  0  0  0  0  0  0  0  0  0
   12.0832  -13.5821    2.5741 C   0  0  0  0  0  0  0  0  0  0  0  0
   11.0824  -13.7980    3.5751 O   0  0  0  0  0  0  0  0  0  0  0  0
   10.2514  -14.9166    3.2714 C   0  0  0  0  0  0  0  0  0  0  0  0
   10.8418  -15.5739    2.0351 C   0  0  0  0  0  0  0  0  0  0  0  0
   11.8269  -14.5775    1.4657 C   0  0  0  0  0  0  0  0  0  0  0  0
    9.6900  -15.4313   -3.6738 C   0  0  0  0  0  0  0  0  0  0  0  0
    9.3154  -16.2955   -5.9884 C   0  0  0  0  0  0  0  0  0  0  0  0
    8.5662  -16.3763   -7.1552 C   0  0  0  0  0  0  0  0  0  0  0  0
    7.3683  -15.6848   -7.2687 C   0  0  0  0  0  0  0  0  0  0  0  0
    6.9277  -14.8988   -6.2075 C   0  0  0  0  0  0  0  0  0  0  0  0
    7.6718  -14.8099   -5.0371 C   0  0  0  0  0  0  0  0  0  0  0  0
    8.8676  -15.5139   -4.9314 C   0  0  0  0  0  0  0  0  0  0  0  0
  9 10  1  0  0  0
 10 11  2  0  0  0
 10 15  1  0  0  0
 11 12  1  0  0  0
 12 13  2  0  0  0
 13 14  1  0  0  0
 13  6  1  0  0  0
 14 15  2  0  0  0
  6  7  2  0  0  0
  6  8  2  0  0  0
  6  5  1  0  0  0
  5 18  1  0  0  0
  5  4  1  0  0  0
 18 19  1  0  0  0
 19 20  1  0  0  0
 19 21  1  0  0  0
  4  1  1  0  0  0
  1  2  1  0  0  0
  1 22  1  0  0  0
 22 23  1  0  0  0
 22 36  1  0  0  0
 23 24  1  0  0  0
 24 25  2  0  0  0
 24 27  1  0  0  0
 27 28  1  0  0  0
 28 29  1  0  0  0
 28 35  1  0  0  0
 29 30  1  0  0  0
 30 31  1  0  0  0
 31 32  1  0  0  0
 31 35  1  0  0  0
 32 33  1  0  0  0
 33 34  1  0  0  0
 34 35  1  0  0  0
 36 42  1  0  0  0
 37 38  2  0  0  0
 37 42  1  0  0  0
 38 39  1  0  0  0
 39 40  2  0  0  0
 40 41  1  0  0  0
 41 42  2  0  0  0
  9 16  1  0  0  0
  9 17  1  0  0  0
  2  3  1  0  0  0
 23 26  1  0  0  0
M  END
> <minimizedAffinity>
-8.91379

$$$$
4HLA_017_A_200


 42 45  0  0  0  0  0  0  0  0999 V2000
   11.2854  -15.5731   -0.1604 C   0  0  0  0  0  0  0  0  0  0  0  0
   11.8487  -16.5262    0.7400 O   0  0  0  0  0  0  0  0  0  0  0  0
   11.3960  -16.4691    1.5960 H   0  0  0  0  0  0  0  0  0  0  0  0
   11.4646  -14.1561    0.3679 C   0  0  0  0  0  0  0  0  0  0  0  0
   11.5664  -14.2277    1.8368 N   0  0  0  0  0  0  0  0  0  0  0  0
   12.9659  -13.5999    2.3674 S   0  0  0  0  0  0  0  0  0  0  0  0
   13.1838  -12.3370    1.7281 O   0  0  0  0  0  0  0  0  0  0  0  0
   13.9960  -14.4921    1.9751 O   0  0  0  0  0  0  0  0  0  0  0  0
   13.3553  -12.5311    7.9977 N   0  0  0  0  0  0  0  0  0  0  0  0
   13.2505  -12.8132    6.6761 C   0  0  0  0  0  0  0  0  0  0  0  0
   12.8895  -14.0872    6.2406 C   0  0  0  0  0  0  0  0  0  0  0  0
   12.7945  -14.3532    4.8774 C   0  0  0  0  0  0  0  0  0  0  0  0
   13.0467  -13.3458    3.9454 C   0  0  0  0  0  0  0  0  0  0  0  0
   13.4204  -12.0870    4.3936 C   0  0  0  0  0  0  0  0  0  0  0  0
   13.5169  -11.8182    5.7498 C   0  0  0  0  0  0  0  0  0  0  0  0
   13.1687  -13.2292    8.6664 H   0  0  0  0  0  0  0  0  0  0  0  0
   13.6180  -11.6281    8.2890 H   0  0  0  0  0  0  0  0  0  0  0  0
   10.4150  -13.5731    2.4786 C   0  0  0  0  0  0  0  0  0  0  0  0
    9.4923  -14.5546    3.2043 C   0  0  0  0  0  0  0  0  0  0  0  0
   10.1943  -15.8617    3.5193 C   0  0  0  0  0  0  0  0  0  0  0  0
    8.8692  -13.9697    4.4670 C   0  0  0  0  0  0  0  0  0  0  0  0
    9.8071  -15.8546   -0.4012 C   0  0  0  0  0  0  0  0  0  0  0  0
    9.7404  -16.3006   -1.7739 N   0  0  0  0  0  0  0  0  0  0  0  0
    9.4588  -15.4888   -2.7856 C   0  0  0  0  0  0  0  0  0  0  0  0
    9.2377  -14.2984   -2.6703 O   0  0  0  0  0  0  0  0  0  0  0  0
    9.9118  -17.2505   -1.9678 H   0  0  0  0  0  0  0  0  0  0  0  0
    9.4442  -16.1141   -4.0919 O   0  0  0  0  0  0  0  0  0  0  0  0
    8.8681  -15.4120   -5.1746 C   0  0  0  0  0  0  0  0  0  0  0  0
    9.6078  -15.9639   -6.3756 C   0  0  0  0  0  0  0  0  0  0  0  0
    8.9558  -17.2086   -6.6430 O   0  0  0  0  0  0  0  0  0  0  0  0
    7.5919  -17.1570   -6.2013 C   0  0  0  0  0  0  0  0  0  0  0  0
    7.2819  -18.2622   -5.3452 O   0  0  0  0  0  0  0  0  0  0  0  0
    6.8490  -17.8370   -4.0547 C   0  0  0  0  0  0  0  0  0  0  0  0
    6.7346  -16.3228   -4.1114 C   0  0  0  0  0  0  0  0  0  0  0  0
    7.4509  -15.8995   -5.3743 C   0  0  0  0  0  0  0  0  0  0  0  0
    9.3361  -17.0429    0.4241 C   0  0  0  0  0  0  0  0  0  0  0  0
    7.2038  -18.1590   -0.2484 C   0  0  0  0  0  0  0  0  0  0  0  0
    5.8167  -18.2189   -0.2881 C   0  0  0  0  0  0  0  0  0  0  0  0
    5.0546  -17.2273    0.3136 C   0  0  0  0  0  0  0  0  0  0  0  0
    5.6910  -16.1642    0.9482 C   0  0  0  0  0  0  0  0  0  0  0  0
    7.0783  -16.0946    0.9909 C   0  0  0  0  0  0  0  0  0  0  0  0
    7.8326  -17.0987    0.3910 C   0  0  0  0  0  0  0  0  0  0  0  0
  9 10  1  0  0  0
 10 11  2  0  0  0
 10 15  1  0  0  0
 11 12  1  0  0  0
 12 13  2  0  0  0
 13 14  1  0  0  0
 13  6  1  0  0  0
 14 15  2  0  0  0
  6  7  2  0  0  0
  6  8  2  0  0  0
  6  5  1  0  0  0
  5 18  1  0  0  0
  5  4  1  0  0  0
 18 19  1  0  0  0
 19 20  1  0  0  0
 19 21  1  0  0  0
  4  1  1  0  0  0
  1  2  1  0  0  0
  1 22  1  0  0  0
 22 23  1  0  0  0
 22 36  1  0  0  0
 23 24  1  0  0  0
 24 25  2  0  0  0
 24 27  1  0  0  0
 27 28  1  0  0  0
 28 29  1  0  0  0
 28 35  1  0  0  0
 29 30  1  0  0  0
 30 31  1  0  0  0
 31 32  1  0  0  0
 31 35  1  0  0  0
 32 33  1  0  0  0
 33 34  1  0  0  0
 34 35  1  0  0  0
 36 42  1  0  0  0
 37 38  2  0  0  0
 37 42  1  0  0  0
 38 39  1  0  0  0
 39 40  2  0  0  0
 40 41  1  0  0  0
 41 42  2  0  0  0
  9 16  1  0  0  0
  9 17  1  0  0  0
  2  3  1  0  0  0
 23 26  1  0  0  0
M  END
> <minimizedAffinity>
-8.90921

$$$$
4HLA_017_A_200


 42 45  0  0  0  0  0  0  0  0999 V2000
    6.8372  -17.4401   -2.0319 C   0  0  0  0  0  0  0  0  0  0  0  0
    6.3175  -16.4076   -1.1950 O   0  0  0  0  0  0  0  0  0  0  0  0
    6.7256  -15.5609   -1.4348 H   0  0  0  0  0  0  0  0  0  0  0  0
    8.3426  -17.5801   -1.8489 C   0  0  0  0  0  0  0  0  0  0  0  0
    8.7740  -16.5850   -0.8505 N   0  0  0  0  0  0  0  0  0  0  0  0
    9.0758  -17.2765    0.5866 S   0  0  0  0  0  0  0  0  0  0  0  0
   10.2672  -18.0647    0.4849 O   0  0  0  0  0  0  0  0  0  0  0  0
    7.9844  -18.1362    0.8706 O   0  0  0  0  0  0  0  0  0  0  0  0
    9.9914  -13.7291    5.0106 N   0  0  0  0  0  0  0  0  0  0  0  0
    9.7467  -14.5504    3.9604 C   0  0  0  0  0  0  0  0  0  0  0  0
    8.5222  -14.5192    3.2951 C   0  0  0  0  0  0  0  0  0  0  0  0
    8.2934  -15.3773    2.2229 C   0  0  0  0  0  0  0  0  0  0  0  0
    9.2899  -16.2593    1.8033 C   0  0  0  0  0  0  0  0  0  0  0  0
   10.4979  -16.2899    2.4853 C   0  0  0  0  0  0  0  0  0  0  0  0
   10.7295  -15.4380    3.5537 C   0  0  0  0  0  0  0  0  0  0  0  0
    9.3016  -13.0936    5.3097 H   0  0  0  0  0  0  0  0  0  0  0  0
   10.8591  -13.7680    5.4742 H   0  0  0  0  0  0  0  0  0  0  0  0
    9.9417  -15.8280   -1.3298 C   0  0  0  0  0  0  0  0  0  0  0  0
    9.7397  -14.3121   -1.2755 C   0  0  0  0  0  0  0  0  0  0  0  0
    8.3028  -13.9452   -0.9571 C   0  0  0  0  0  0  0  0  0  0  0  0
   10.6914  -13.6148   -0.3099 C   0  0  0  0  0  0  0  0  0  0  0  0
    6.5148  -17.1717   -3.4970 C   0  0  0  0  0  0  0  0  0  0  0  0
    5.0790  -17.3082   -3.5846 N   0  0  0  0  0  0  0  0  0  0  0  0
    4.4850  -18.3323   -4.1847 C   0  0  0  0  0  0  0  0  0  0  0  0
    5.0748  -19.2568   -4.7107 O   0  0  0  0  0  0  0  0  0  0  0  0
    4.5154  -16.6094   -3.1805 H   0  0  0  0  0  0  0  0  0  0  0  0
    3.0371  -18.3020   -4.1662 O   0  0  0  0  0  0  0  0  0  0  0  0
    2.3720  -17.2296   -4.8022 C   0  0  0  0  0  0  0  0  0  0  0  0
    2.7478  -17.4064   -6.2588 C   0  0  0  0  0  0  0  0  0  0  0  0
    1.8609  -18.4274   -6.7247 O   0  0  0  0  0  0  0  0  0  0  0  0
    0.6446  -18.4103   -5.9642 C   0  0  0  0  0  0  0  0  0  0  0  0
    0.3424  -19.7081   -5.4400 O   0  0  0  0  0  0  0  0  0  0  0  0
    0.2605  -19.7066   -4.0162 C   0  0  0  0  0  0  0  0  0  0  0  0
    0.3849  -18.2578   -3.5750 C   0  0  0  0  0  0  0  0  0  0  0  0
    0.8841  -17.4974   -4.7833 C   0  0  0  0  0  0  0  0  0  0  0  0
    6.7972  -15.7216   -3.8613 C   0  0  0  0  0  0  0  0  0  0  0  0
    8.9864  -15.5435   -5.0530 C   0  0  0  0  0  0  0  0  0  0  0  0
    9.7432  -15.5029   -6.2169 C   0  0  0  0  0  0  0  0  0  0  0  0
    9.1286  -15.6068   -7.4569 C   0  0  0  0  0  0  0  0  0  0  0  0
    7.7447  -15.7405   -7.5267 C   0  0  0  0  0  0  0  0  0  0  0  0
    6.9791  -15.7797   -6.3676 C   0  0  0  0  0  0  0  0  0  0  0  0
    7.6067  -15.6826   -5.1293 C   0  0  0  0  0  0  0  0  0  0  0  0
  9 10  1  0  0  0
 10 11  2  0  0  0
 10 15  1  0  0  0
 11 12  1  0  0  0
 12 13  2  0  0  0
 13 14  1  0  0  0
 13  6  1  0  0  0
 14 15  2  0  0  0
  6  7  2  0  0  0
  6  8  2  0  0  0
  6  5  1  0  0  0
  5 18  1  0  0  0
  5  4  1  0  0  0
 18 19  1  0  0  0
 19 20  1  0  0  0
 19 21  1  0  0  0
  4  1  1  0  0  0
  1  2  1  0  0  0
  1 22  1  0  0  0
 22 23  1  0  0  0
 22 36  1  0  0  0
 23 24  1  0  0  0
 24 25  2  0  0  0
 24 27  1  0  0  0
 27 28  1  0  0  0
 28 29  1  0  0  0
 28 35  1  0  0  0
 29 30  1  0  0  0
 30 31  1  0  0  0
 31 32  1  0  0  0
 31 35  1  0  0  0
 32 33  1  0  0  0
 33 34  1  0  0  0
 34 35  1  0  0  0
 36 42  1  0  0  0
 37 38  2  0  0  0
 37 42  1  0  0  0
 38 39  1  0  0  0
 39 40  2  0  0  0
 40 41  1  0  0  0
 41 42  2  0  0  0
  9 16  1  0  0  0
  9 17  1  0  0  0
  2  3  1  0  0  0
 23 26  1  0  0  0
M  END
> <minimizedAffinity>
-8.78686

$$$$
4HLA_017_A_200


 42 45  0  0  0  0  0  0  0  0999 V2000
    9.8524  -16.8853   -0.5338 C   0  0  0  0  0  0  0  0  0  0  0  0
   10.0577  -17.4890    0.7429 O   0  0  0  0  0  0  0  0  0  0  0  0
    9.6801  -16.9218    1.4332 H   0  0  0  0  0  0  0  0  0  0  0  0
   10.5465  -15.5320   -0.6115 C   0  0  0  0  0  0  0  0  0  0  0  0
   10.9416  -15.1442    0.7547 N   0  0  0  0  0  0  0  0  0  0  0  0
   12.3722  -14.3778    0.7654 S   0  0  0  0  0  0  0  0  0  0  0  0
   12.3724  -13.3743   -0.2565 O   0  0  0  0  0  0  0  0  0  0  0  0
   13.3627  -15.3439    0.4544 O   0  0  0  0  0  0  0  0  0  0  0  0
   13.7563  -11.5989    5.5982 N   0  0  0  0  0  0  0  0  0  0  0  0
   13.4276  -12.2830    4.4751 C   0  0  0  0  0  0  0  0  0  0  0  0
   13.3426  -13.6743    4.4814 C   0  0  0  0  0  0  0  0  0  0  0  0
   13.0088  -14.3540    3.3131 C   0  0  0  0  0  0  0  0  0  0  0  0
   12.7463  -13.6471    2.1391 C   0  0  0  0  0  0  0  0  0  0  0  0
   12.8503  -12.2634    2.1444 C   0  0  0  0  0  0  0  0  0  0  0  0
   13.1831  -11.5829    3.3050 C   0  0  0  0  0  0  0  0  0  0  0  0
   13.9325  -12.0843    6.4364 H   0  0  0  0  0  0  0  0  0  0  0  0
   13.8188  -10.6167    5.5757 H   0  0  0  0  0  0  0  0  0  0  0  0
    9.8980  -14.3269    1.3944 C   0  0  0  0  0  0  0  0  0  0  0  0
    9.2753  -14.9979    2.6205 C   0  0  0  0  0  0  0  0  0  0  0  0
    9.3751  -14.1221    3.8549 C   0  0  0  0  0  0  0  0  0  0  0  0
    7.8322  -15.4356    2.3962 C   0  0  0  0  0  0  0  0  0  0  0  0
    8.3663  -16.7247   -0.8309 C   0  0  0  0  0  0  0  0  0  0  0  0
    8.2727  -16.8014   -2.2707 N   0  0  0  0  0  0  0  0  0  0  0  0
    7.8823  -15.7819   -3.0257 C   0  0  0  0  0  0  0  0  0  0  0  0
    7.5736  -14.6869   -2.5955 O   0  0  0  0  0  0  0  0  0  0  0  0
    8.5094  -17.6490   -2.7122 H   0  0  0  0  0  0  0  0  0  0  0  0
    7.8577  -16.0436   -4.4499 O   0  0  0  0  0  0  0  0  0  0  0  0
    8.1929  -14.9974   -5.3387 C   0  0  0  0  0  0  0  0  0  0  0  0
    9.6769  -15.1993   -5.5643 C   0  0  0  0  0  0  0  0  0  0  0  0
    9.7409  -16.2459   -6.5373 O   0  0  0  0  0  0  0  0  0  0  0  0
    8.5619  -16.2337   -7.3545 C   0  0  0  0  0  0  0  0  0  0  0  0
    7.9441  -17.5250   -7.3926 O   0  0  0  0  0  0  0  0  0  0  0  0
    6.6040  -17.4938   -6.9056 C   0  0  0  0  0  0  0  0  0  0  0  0
    6.2668  -16.0338   -6.6533 C   0  0  0  0  0  0  0  0  0  0  0  0
    7.5838  -15.2912   -6.6911 C   0  0  0  0  0  0  0  0  0  0  0  0
    7.5750  -17.9192   -0.3189 C   0  0  0  0  0  0  0  0  0  0  0  0
    5.6428  -18.7859   -1.6455 C   0  0  0  0  0  0  0  0  0  0  0  0
    4.3333  -18.6928   -2.0990 C   0  0  0  0  0  0  0  0  0  0  0  0
    3.5293  -17.6317   -1.7071 C   0  0  0  0  0  0  0  0  0  0  0  0
    4.0489  -16.6532   -0.8642 C   0  0  0  0  0  0  0  0  0  0  0  0
    5.3588  -16.7367   -0.4074 C   0  0  0  0  0  0  0  0  0  0  0  0
    6.1535  -17.8094   -0.8005 C   0  0  0  0  0  0  0  0  0  0  0  0
  9 10  1  0  0  0
 10 11  2  0  0  0
 10 15  1  0  0  0
 11 12  1  0  0  0
 12 13  2  0  0  0
 13 14  1  0  0  0
 13  6  1  0  0  0
 14 15  2  0  0  0
  6  7  2  0  0  0
  6  8  2  0  0  0
  6  5  1  0  0  0
  5 18  1  0  0  0
  5  4  1  0  0  0
 18 19  1  0  0  0
 19 20  1  0  0  0
 19 21  1  0  0  0
  4  1  1  0  0  0
  1  2  1  0  0  0
  1 22  1  0  0  0
 22 23  1  0  0  0
 22 36  1  0  0  0
 23 24  1  0  0  0
 24 25  2  0  0  0
 24 27  1  0  0  0
 27 28  1  0  0  0
 28 29  1  0  0  0
 28 35  1  0  0  0
 29 30  1  0  0  0
 30 31  1  0  0  0
 31 32  1  0  0  0
 31 35  1  0  0  0
 32 33  1  0  0  0
 33 34  1  0  0  0
 34 35  1  0  0  0
 36 42  1  0  0  0
 37 38  2  0  0  0
 37 42  1  0  0  0
 38 39  1  0  0  0
 39 40  2  0  0  0
 40 41  1  0  0  0
 41 42  2  0  0  0
  9 16  1  0  0  0
  9 17  1  0  0  0
  2  3  1  0  0  0
 23 26  1  0  0  0
M  END
> <minimizedAffinity>
-8.71900

$$$$
4HLA_017_A_200


 42 45  0  0  0  0  0  0  0  0999 V2000
   10.0158  -15.9175    0.7857 C   0  0  0  0  0  0  0  0  0  0  0  0
   11.0243  -16.6806    0.1246 O   0  0  0  0  0  0  0  0  0  0  0  0
   11.3551  -16.1850   -0.6408 H   0  0  0  0  0  0  0  0  0  0  0  0
    8.8382  -15.6547   -0.1436 C   0  0  0  0  0  0  0  0  0  0  0  0
    8.4011  -16.9476   -0.7008 N   0  0  0  0  0  0  0  0  0  0  0  0
    7.0734  -17.5010    0.0509 S   0  0  0  0  0  0  0  0  0  0  0  0
    6.7056  -16.5827    1.0865 O   0  0  0  0  0  0  0  0  0  0  0  0
    7.4196  -18.7414    0.6448 O   0  0  0  0  0  0  0  0  0  0  0  0
    2.5427  -18.3388   -3.3792 N   0  0  0  0  0  0  0  0  0  0  0  0
    3.5990  -18.1118   -2.5605 C   0  0  0  0  0  0  0  0  0  0  0  0
    3.7684  -16.8788   -1.9328 C   0  0  0  0  0  0  0  0  0  0  0  0
    4.8650  -16.6689   -1.1011 C   0  0  0  0  0  0  0  0  0  0  0  0
    5.7882  -17.6922   -0.8833 C   0  0  0  0  0  0  0  0  0  0  0  0
    5.6148  -18.9088   -1.5276 C   0  0  0  0  0  0  0  0  0  0  0  0
    4.5250  -19.1218   -2.3569 C   0  0  0  0  0  0  0  0  0  0  0  0
    1.8774  -17.6295   -3.5324 H   0  0  0  0  0  0  0  0  0  0  0  0
    2.4409  -19.2129   -3.8205 H   0  0  0  0  0  0  0  0  0  0  0  0
    8.1858  -16.8508   -2.1536 C   0  0  0  0  0  0  0  0  0  0  0  0
    8.6851  -15.5328   -2.7494 C   0  0  0  0  0  0  0  0  0  0  0  0
    9.8549  -15.7463   -3.6911 C   0  0  0  0  0  0  0  0  0  0  0  0
    7.5865  -14.7334   -3.4413 C   0  0  0  0  0  0  0  0  0  0  0  0
   10.5769  -14.5970    1.2993 C   0  0  0  0  0  0  0  0  0  0  0  0
   10.7035  -14.7857    2.7262 N   0  0  0  0  0  0  0  0  0  0  0  0
    9.7380  -14.4812    3.5848 C   0  0  0  0  0  0  0  0  0  0  0  0
    8.6558  -14.0252    3.2684 O   0  0  0  0  0  0  0  0  0  0  0  0
   11.5446  -15.1573    3.0779 H   0  0  0  0  0  0  0  0  0  0  0  0
   10.0436  -14.7466    4.9753 O   0  0  0  0  0  0  0  0  0  0  0  0
    9.0298  -14.5581    5.9415 C   0  0  0  0  0  0  0  0  0  0  0  0
    8.5019  -15.9600    6.1650 C   0  0  0  0  0  0  0  0  0  0  0  0
    9.4502  -16.5496    7.0590 O   0  0  0  0  0  0  0  0  0  0  0  0
   10.0672  -15.5353    7.8642 C   0  0  0  0  0  0  0  0  0  0  0  0
   11.4952  -15.6210    7.8018 O   0  0  0  0  0  0  0  0  0  0  0  0
   12.0842  -14.4204    7.3065 C   0  0  0  0  0  0  0  0  0  0  0  0
   10.9573  -13.4117    7.1591 C   0  0  0  0  0  0  0  0  0  0  0  0
    9.6740  -14.2052    7.2631 C   0  0  0  0  0  0  0  0  0  0  0  0
   11.9979  -14.3772    0.8017 C   0  0  0  0  0  0  0  0  0  0  0  0
   12.3058  -12.1215    1.8320 C   0  0  0  0  0  0  0  0  0  0  0  0
   12.9586  -11.2534    2.6977 C   0  0  0  0  0  0  0  0  0  0  0  0
   14.0101  -11.7050    3.4828 C   0  0  0  0  0  0  0  0  0  0  0  0
   14.4145  -13.0337    3.3880 C   0  0  0  0  0  0  0  0  0  0  0  0
   13.7689  -13.9090    2.5229 C   0  0  0  0  0  0  0  0  0  0  0  0
   12.7105  -13.4472    1.7461 C   0  0  0  0  0  0  0  0  0  0  0  0
  9 10  1  0  0  0
 10 11  2  0  0  0
 10 15  1  0  0  0
 11 12  1  0  0  0
 12 13  2  0  0  0
 13 14  1  0  0  0
 13  6  1  0  0  0
 14 15  2  0  0  0
  6  7  2  0  0  0
  6  8  2  0  0  0
  6  5  1  0  0  0
  5 18  1  0  0  0
  5  4  1  0  0  0
 18 19  1  0  0  0
 19 20  1  0  0  0
 19 21  1  0  0  0
  4  1  1  0  0  0
  1  2  1  0  0  0
  1 22  1  0  0  0
 22 23  1  0  0  0
 22 36  1  0  0  0
 23 24  1  0  0  0
 24 25  2  0  0  0
 24 27  1  0  0  0
 27 28  1  0  0  0
 28 29  1  0  0  0
 28 35  1  0  0  0
 29 30  1  0  0  0
 30 31  1  0  0  0
 31 32  1  0  0  0
 31 35  1  0  0  0
 32 33  1  0  0  0
 33 34  1  0  0  0
 34 35  1  0  0  0
 36 42  1  0  0  0
 37 38  2  0  0  0
 37 42  1  0  0  0
 38 39  1  0  0  0
 39 40  2  0  0  0
 40 41  1  0  0  0
 41 42  2  0  0  0
  9 16  1  0  0  0
  9 17  1  0  0  0
  2  3  1  0  0  0
 23 26  1  0  0  0
M  END
> <minimizedAffinity>
-8.69240

$$$$
4HLA_017_A_200


 42 45  0  0  0  0  0  0  0  0999 V2000
    8.7630  -17.2911   -1.1227 C   0  0  0  0  0  0  0  0  0  0  0  0
    9.9362  -18.1035   -1.1246 O   0  0  0  0  0  0  0  0  0  0  0  0
   10.3025  -18.1404   -2.0220 H   0  0  0  0  0  0  0  0  0  0  0  0
    7.6961  -17.8774   -2.0377 C   0  0  0  0  0  0  0  0  0  0  0  0
    6.3847  -17.3784   -1.5856 N   0  0  0  0  0  0  0  0  0  0  0  0
    5.1735  -18.0099   -2.4623 S   0  0  0  0  0  0  0  0  0  0  0  0
    3.9503  -17.3536   -2.1101 O   0  0  0  0  0  0  0  0  0  0  0  0
    5.0740  -19.3790   -2.1066 O   0  0  0  0  0  0  0  0  0  0  0  0
    5.5707  -17.5550   -8.1745 N   0  0  0  0  0  0  0  0  0  0  0  0
    5.5102  -17.6634   -6.8248 C   0  0  0  0  0  0  0  0  0  0  0  0
    6.6553  -17.9236   -6.0737 C   0  0  0  0  0  0  0  0  0  0  0  0
    6.5656  -18.0363   -4.6889 C   0  0  0  0  0  0  0  0  0  0  0  0
    5.3361  -17.8768   -4.0488 C   0  0  0  0  0  0  0  0  0  0  0  0
    4.2025  -17.6340   -4.8111 C   0  0  0  0  0  0  0  0  0  0  0  0
    4.2871  -17.5219   -6.1899 C   0  0  0  0  0  0  0  0  0  0  0  0
    6.4336  -17.6535   -8.6381 H   0  0  0  0  0  0  0  0  0  0  0  0
    4.7517  -17.3778   -8.6913 H   0  0  0  0  0  0  0  0  0  0  0  0
    6.1887  -17.6345   -0.1496 C   0  0  0  0  0  0  0  0  0  0  0  0
    5.8596  -16.3705    0.6476 C   0  0  0  0  0  0  0  0  0  0  0  0
    4.4493  -16.4057    1.2047 C   0  0  0  0  0  0  0  0  0  0  0  0
    6.8623  -16.0856    1.7603 C   0  0  0  0  0  0  0  0  0  0  0  0
    9.0848  -15.8636   -1.5480 C   0  0  0  0  0  0  0  0  0  0  0  0
    9.7695  -15.2909   -0.4119 N   0  0  0  0  0  0  0  0  0  0  0  0
    9.3521  -14.1929    0.2063 C   0  0  0  0  0  0  0  0  0  0  0  0
    8.3591  -13.5639   -0.1060 O   0  0  0  0  0  0  0  0  0  0  0  0
   10.5831  -15.7356   -0.0810 H   0  0  0  0  0  0  0  0  0  0  0  0
   10.1627  -13.7726    1.3305 O   0  0  0  0  0  0  0  0  0  0  0  0
   11.4862  -14.2573    1.4324 C   0  0  0  0  0  0  0  0  0  0  0  0
   12.2904  -13.0058    1.7171 C   0  0  0  0  0  0  0  0  0  0  0  0
   12.1054  -12.7856    3.1183 O   0  0  0  0  0  0  0  0  0  0  0  0
   11.8577  -14.0310    3.7859 C   0  0  0  0  0  0  0  0  0  0  0  0
   10.6688  -13.9654    4.5813 O   0  0  0  0  0  0  0  0  0  0  0  0
    9.7023  -14.9357    4.1836 C   0  0  0  0  0  0  0  0  0  0  0  0
   10.3657  -15.8024    3.1263 C   0  0  0  0  0  0  0  0  0  0  0  0
   11.6154  -15.0612    2.7065 C   0  0  0  0  0  0  0  0  0  0  0  0
   10.1067  -15.8470   -2.6753 C   0  0  0  0  0  0  0  0  0  0  0  0
    8.2121  -14.7730   -3.9005 C   0  0  0  0  0  0  0  0  0  0  0  0
    7.5667  -14.4118   -5.0762 C   0  0  0  0  0  0  0  0  0  0  0  0
    8.1246  -14.7263   -6.3074 C   0  0  0  0  0  0  0  0  0  0  0  0
    9.3319  -15.4177   -6.3561 C   0  0  0  0  0  0  0  0  0  0  0  0
    9.9836  -15.7853   -5.1850 C   0  0  0  0  0  0  0  0  0  0  0  0
    9.4189  -15.4578   -3.9559 C   0  0  0  0  0  0  0  0  0  0  0  0
  9 10  1  0  0  0
 10 11  2  0  0  0
 10 15  1  0  0  0
 11 12  1  0  0  0
 12 13  2  0  0  0
 13 14  1  0  0  0
 13  6  1  0  0  0
 14 15  2  0  0  0
  6  7  2  0  0  0
  6  8  2  0  0  0
  6  5  1  0  0  0
  5 18  1  0  0  0
  5  4  1  0  0  0
 18 19  1  0  0  0
 19 20  1  0  0  0
 19 21  1  0  0  0
  4  1  1  0  0  0
  1  2  1  0  0  0
  1 22  1  0  0  0
 22 23  1  0  0  0
 22 36  1  0  0  0
 23 24  1  0  0  0
 24 25  2  0  0  0
 24 27  1  0  0  0
 27 28  1  0  0  0
 28 29  1  0  0  0
 28 35  1  0  0  0
 29 30  1  0  0  0
 30 31  1  0  0  0
 31 32  1  0  0  0
 31 35  1  0  0  0
 32 33  1  0  0  0
 33 34  1  0  0  0
 34 35  1  0  0  0
 36 42  1  0  0  0
 37 38  2  0  0  0
 37 42  1  0  0  0
 38 39  1  0  0  0
 39 40  2  0  0  0
 40 41  1  0  0  0
 41 42  2  0  0  0
  9 16  1  0  0  0
  9 17  1  0  0  0
  2  3  1  0  0  0
 23 26  1  0  0  0
M  END
> <minimizedAffinity>
-8.64385

$$$$
