3DJX_C5P_A_125


 27 28  0  0  0  0  0  0  0  0999 V2000
   31.1611   40.2317    8.2709 C   0  0  0  0  0  0  0  0  0  0  0  0
   31.6846   40.7719    7.0430 O   0  0  0  0  0  0  0  0  0  0  0  0
   29.7277   40.7240    8.4154 C   0  0  0  0  0  0  0  0  0  0  0  0
   29.4957   41.2158    9.7364 O   0  0  0  0  0  0  0  0  0  0  0  0
   29.6413   41.9229    7.5059 C   0  0  0  0  0  0  0  0  0  0  0  0
   29.9701   43.0751    8.2670 O   0  0  0  0  0  0  0  0  0  0  0  0
   30.7505   41.7210    6.4958 C   0  0  0  0  0  0  0  0  0  0  0  0
   30.1257   41.9270    9.9319 H   0  0  0  0  0  0  0  0  0  0  0  0
   30.8472   42.9602    8.6650 H   0  0  0  0  0  0  0  0  0  0  0  0
   30.2394   41.2406    5.2139 N   0  0  0  0  0  0  0  0  0  0  0  0
   30.2169   42.1081    4.1037 C   0  0  0  0  0  0  0  0  0  0  0  0
   29.7704   41.6807    2.9082 N   0  0  0  0  0  0  0  0  0  0  0  0
   29.3342   40.4119    2.7309 C   0  0  0  0  0  0  0  0  0  0  0  0
   29.3504   39.5317    3.8034 C   0  0  0  0  0  0  0  0  0  0  0  0
   29.8110   39.9648    5.0420 C   0  0  0  0  0  0  0  0  0  0  0  0
   30.5819   43.2768    4.2510 O   0  0  0  0  0  0  0  0  0  0  0  0
   28.8906   40.0059    1.5133 N   0  0  0  0  0  0  0  0  0  0  0  0
   28.8822   40.6363    0.7572 H   0  0  0  0  0  0  0  0  0  0  0  0
   28.5775   39.0811    1.3868 H   0  0  0  0  0  0  0  0  0  0  0  0
   31.2833   38.7020    8.3207 C   0  0  0  0  0  0  0  0  0  0  0  0
   31.3426   38.1439    9.6411 O   0  0  0  0  0  0  0  0  0  0  0  0
   32.4899   36.3154   10.9883 O   0  0  0  0  0  0  0  0  0  0  0  0
   32.7479   37.5453   10.2095 P   0  0  0  0  0  0  0  0  0  0  0  0
   33.3015   38.5737   11.1662 O   0  0  0  0  0  0  0  0  0  0  0  0
   33.5493   37.2572    8.9516 O   0  0  0  0  0  0  0  0  0  0  0  0
   33.3290   35.9634   11.3242 H   0  0  0  0  0  0  0  0  0  0  0  0
   34.4143   36.8924    9.1958 H   0  0  0  0  0  0  0  0  0  0  0  0
 22 23  1  0  0  0
 23 24  2  0  0  0
 23 25  1  0  0  0
 23 21  1  0  0  0
 21 20  1  0  0  0
 20  1  1  0  0  0
  1  2  1  0  0  0
  1  3  1  0  0  0
  2  7  1  0  0  0
  3  4  1  0  0  0
  3  5  1  0  0  0
  5  6  1  0  0  0
  5  7  1  0  0  0
  7 10  1  0  0  0
 10 11  1  0  0  0
 10 15  1  0  0  0
 11 12  1  0  0  0
 11 16  2  0  0  0
 12 13  2  0  0  0
 13 14  1  0  0  0
 13 17  1  0  0  0
 14 15  2  0  0  0
 22 26  1  0  0  0
 25 27  1  0  0  0
  4  8  1  0  0  0
  6  9  1  0  0  0
 17 18  1  0  0  0
 17 19  1  0  0  0
M  END
> <minimizedAffinity>
-7.16030

$$$$
3DJX_C5P_A_125


 27 28  0  0  0  0  0  0  0  0999 V2000
   29.9727   40.0253    3.9339 C   0  0  0  0  0  0  0  0  0  0  0  0
   30.6399   41.1477    4.5411 O   0  0  0  0  0  0  0  0  0  0  0  0
   29.3010   39.2329    5.0469 C   0  0  0  0  0  0  0  0  0  0  0  0
   29.5670   37.8369    4.9013 O   0  0  0  0  0  0  0  0  0  0  0  0
   30.0123   39.6612    6.3048 C   0  0  0  0  0  0  0  0  0  0  0  0
   31.1010   38.7753    6.5161 O   0  0  0  0  0  0  0  0  0  0  0  0
   30.5960   41.0182    5.9743 C   0  0  0  0  0  0  0  0  0  0  0  0
   30.5256   37.6885    4.9030 H   0  0  0  0  0  0  0  0  0  0  0  0
   31.6747   38.7758    5.7340 H   0  0  0  0  0  0  0  0  0  0  0  0
   29.8096   42.1054    6.5530 N   0  0  0  0  0  0  0  0  0  0  0  0
   30.1113   42.5705    7.8484 C   0  0  0  0  0  0  0  0  0  0  0  0
   29.4140   43.5848    8.3928 N   0  0  0  0  0  0  0  0  0  0  0  0
   28.4090   44.1911    7.7190 C   0  0  0  0  0  0  0  0  0  0  0  0
   28.0925   43.7603    6.4385 C   0  0  0  0  0  0  0  0  0  0  0  0
   28.8085   42.7135    5.8682 C   0  0  0  0  0  0  0  0  0  0  0  0
   31.0035   42.0122    8.4911 O   0  0  0  0  0  0  0  0  0  0  0  0
   27.7227   45.2138    8.2909 N   0  0  0  0  0  0  0  0  0  0  0  0
   27.9532   45.5138    9.1998 H   0  0  0  0  0  0  0  0  0  0  0  0
   26.9946   45.6552    7.7967 H   0  0  0  0  0  0  0  0  0  0  0  0
   28.9985   40.4665    2.8323 C   0  0  0  0  0  0  0  0  0  0  0  0
   29.6174   41.0522    1.6781 O   0  0  0  0  0  0  0  0  0  0  0  0
   30.4945   43.3631    1.0740 O   0  0  0  0  0  0  0  0  0  0  0  0
   29.2520   42.5805    1.2458 P   0  0  0  0  0  0  0  0  0  0  0  0
   28.4956   43.1888    2.4022 O   0  0  0  0  0  0  0  0  0  0  0  0
   28.5064   42.4128   -0.0670 O   0  0  0  0  0  0  0  0  0  0  0  0
   30.2716   44.2715    0.8169 H   0  0  0  0  0  0  0  0  0  0  0  0
   28.2456   43.2841   -0.4043 H   0  0  0  0  0  0  0  0  0  0  0  0
 22 23  1  0  0  0
 23 24  2  0  0  0
 23 25  1  0  0  0
 23 21  1  0  0  0
 21 20  1  0  0  0
 20  1  1  0  0  0
  1  2  1  0  0  0
  1  3  1  0  0  0
  2  7  1  0  0  0
  3  4  1  0  0  0
  3  5  1  0  0  0
  5  6  1  0  0  0
  5  7  1  0  0  0
  7 10  1  0  0  0
 10 11  1  0  0  0
 10 15  1  0  0  0
 11 12  1  0  0  0
 11 16  2  0  0  0
 12 13  2  0  0  0
 13 14  1  0  0  0
 13 17  1  0  0  0
 14 15  2  0  0  0
 22 26  1  0  0  0
 25 27  1  0  0  0
  4  8  1  0  0  0
  6  9  1  0  0  0
 17 18  1  0  0  0
 17 19  1  0  0  0
M  END
> <minimizedAffinity>
-7.02439

$$$$
3DJX_C5P_A_125


 27 28  0  0  0  0  0  0  0  0999 V2000
   30.3994   40.3449    4.7813 C   0  0  0  0  0  0  0  0  0  0  0  0
   31.3959   40.0230    5.7697 O   0  0  0  0  0  0  0  0  0  0  0  0
   29.1321   39.5815    5.1408 C   0  0  0  0  0  0  0  0  0  0  0  0
   28.5870   38.9402    3.9865 O   0  0  0  0  0  0  0  0  0  0  0  0
   29.5979   38.4728    6.0495 C   0  0  0  0  0  0  0  0  0  0  0  0
   29.8895   37.3402    5.2453 O   0  0  0  0  0  0  0  0  0  0  0  0
   30.9098   38.9677    6.6199 C   0  0  0  0  0  0  0  0  0  0  0  0
   29.2505   38.3453    3.6035 H   0  0  0  0  0  0  0  0  0  0  0  0
   30.5441   37.5820    4.5715 H   0  0  0  0  0  0  0  0  0  0  0  0
   30.7595   39.4551    7.9893 N   0  0  0  0  0  0  0  0  0  0  0  0
   31.2052   38.6606    9.0643 C   0  0  0  0  0  0  0  0  0  0  0  0
   31.0962   39.0986   10.3322 N   0  0  0  0  0  0  0  0  0  0  0  0
   30.5622   40.3092   10.6166 C   0  0  0  0  0  0  0  0  0  0  0  0
   30.1205   41.1177    9.5791 C   0  0  0  0  0  0  0  0  0  0  0  0
   30.2302   40.6733    8.2660 C   0  0  0  0  0  0  0  0  0  0  0  0
   31.6674   37.5418    8.8292 O   0  0  0  0  0  0  0  0  0  0  0  0
   30.4658   40.7277   11.9049 N   0  0  0  0  0  0  0  0  0  0  0  0
   30.7814   40.1483   12.6356 H   0  0  0  0  0  0  0  0  0  0  0  0
   30.0803   41.6105   12.1081 H   0  0  0  0  0  0  0  0  0  0  0  0
   30.1801   41.8598    4.6624 C   0  0  0  0  0  0  0  0  0  0  0  0
   30.6293   42.4399    3.4295 O   0  0  0  0  0  0  0  0  0  0  0  0
   30.2442   43.2972    1.0649 O   0  0  0  0  0  0  0  0  0  0  0  0
   29.6294   42.4946    2.1436 P   0  0  0  0  0  0  0  0  0  0  0  0
   28.3862   43.2244    2.5922 O   0  0  0  0  0  0  0  0  0  0  0  0
   29.4790   41.0367    1.7446 O   0  0  0  0  0  0  0  0  0  0  0  0
   29.6454   43.3266    0.3023 H   0  0  0  0  0  0  0  0  0  0  0  0
   28.8916   40.9709    0.9754 H   0  0  0  0  0  0  0  0  0  0  0  0
 22 23  1  0  0  0
 23 24  2  0  0  0
 23 25  1  0  0  0
 23 21  1  0  0  0
 21 20  1  0  0  0
 20  1  1  0  0  0
  1  2  1  0  0  0
  1  3  1  0  0  0
  2  7  1  0  0  0
  3  4  1  0  0  0
  3  5  1  0  0  0
  5  6  1  0  0  0
  5  7  1  0  0  0
  7 10  1  0  0  0
 10 11  1  0  0  0
 10 15  1  0  0  0
 11 12  1  0  0  0
 11 16  2  0  0  0
 12 13  2  0  0  0
 13 14  1  0  0  0
 13 17  1  0  0  0
 14 15  2  0  0  0
 22 26  1  0  0  0
 25 27  1  0  0  0
  4  8  1  0  0  0
  6  9  1  0  0  0
 17 18  1  0  0  0
 17 19  1  0  0  0
M  END
> <minimizedAffinity>
-6.83699

$$$$
3DJX_C5P_A_125


 27 28  0  0  0  0  0  0  0  0999 V2000
   30.6205   41.2476    8.6205 C   0  0  0  0  0  0  0  0  0  0  0  0
   29.4219   40.9897    7.8652 O   0  0  0  0  0  0  0  0  0  0  0  0
   31.6959   40.2958    8.1151 C   0  0  0  0  0  0  0  0  0  0  0  0
   32.3728   39.6752    9.2095 O   0  0  0  0  0  0  0  0  0  0  0  0
   30.9367   39.1949    7.4197 C   0  0  0  0  0  0  0  0  0  0  0  0
   30.6730   38.1754    8.3713 O   0  0  0  0  0  0  0  0  0  0  0  0
   29.6076   39.8178    7.0497 C   0  0  0  0  0  0  0  0  0  0  0  0
   31.7295   39.2055    9.7631 H   0  0  0  0  0  0  0  0  0  0  0  0
   30.1932   38.5529    9.1251 H   0  0  0  0  0  0  0  0  0  0  0  0
   29.5489   40.1764    5.6343 N   0  0  0  0  0  0  0  0  0  0  0  0
   29.3400   39.1713    4.6691 C   0  0  0  0  0  0  0  0  0  0  0  0
   29.2612   39.4814    3.3618 N   0  0  0  0  0  0  0  0  0  0  0  0
   29.3753   40.7597    2.9323 C   0  0  0  0  0  0  0  0  0  0  0  0
   29.5748   41.7728    3.8592 C   0  0  0  0  0  0  0  0  0  0  0  0
   29.6565   41.4613    5.2120 C   0  0  0  0  0  0  0  0  0  0  0  0
   29.2631   37.9966    5.0366 O   0  0  0  0  0  0  0  0  0  0  0  0
   29.2900   41.0454    1.6075 N   0  0  0  0  0  0  0  0  0  0  0  0
   29.1485   40.3211    0.9559 H   0  0  0  0  0  0  0  0  0  0  0  0
   29.3698   41.9767    1.2986 H   0  0  0  0  0  0  0  0  0  0  0  0
   31.0361   42.7238    8.5474 C   0  0  0  0  0  0  0  0  0  0  0  0
   32.4035   42.9839    8.8951 O   0  0  0  0  0  0  0  0  0  0  0  0
   34.5100   42.7164    7.4930 O   0  0  0  0  0  0  0  0  0  0  0  0
   33.4086   43.6535    7.8007 P   0  0  0  0  0  0  0  0  0  0  0  0
   34.0222   44.8650    8.4602 O   0  0  0  0  0  0  0  0  0  0  0  0
   32.5173   43.8902    6.5936 O   0  0  0  0  0  0  0  0  0  0  0  0
   35.1050   43.1195    6.8416 H   0  0  0  0  0  0  0  0  0  0  0  0
   33.0381   44.2927    5.8811 H   0  0  0  0  0  0  0  0  0  0  0  0
 22 23  1  0  0  0
 23 24  2  0  0  0
 23 25  1  0  0  0
 23 21  1  0  0  0
 21 20  1  0  0  0
 20  1  1  0  0  0
  1  2  1  0  0  0
  1  3  1  0  0  0
  2  7  1  0  0  0
  3  4  1  0  0  0
  3  5  1  0  0  0
  5  6  1  0  0  0
  5  7  1  0  0  0
  7 10  1  0  0  0
 10 11  1  0  0  0
 10 15  1  0  0  0
 11 12  1  0  0  0
 11 16  2  0  0  0
 12 13  2  0  0  0
 13 14  1  0  0  0
 13 17  1  0  0  0
 14 15  2  0  0  0
 22 26  1  0  0  0
 25 27  1  0  0  0
  4  8  1  0  0  0
  6  9  1  0  0  0
 17 18  1  0  0  0
 17 19  1  0  0  0
M  END
> <minimizedAffinity>
-6.83577

$$$$
3DJX_C5P_A_125


 27 28  0  0  0  0  0  0  0  0999 V2000
   30.0077   41.8025    8.1920 C   0  0  0  0  0  0  0  0  0  0  0  0
   30.8944   41.6547    7.0671 O   0  0  0  0  0  0  0  0  0  0  0  0
   28.8489   42.6859    7.7508 C   0  0  0  0  0  0  0  0  0  0  0  0
   28.5877   43.6968    8.7259 O   0  0  0  0  0  0  0  0  0  0  0  0
   29.3613   43.4089    6.5316 C   0  0  0  0  0  0  0  0  0  0  0  0
   29.9498   44.6276    6.9596 O   0  0  0  0  0  0  0  0  0  0  0  0
   30.4775   42.5325    6.0048 C   0  0  0  0  0  0  0  0  0  0  0  0
   29.3892   44.2248    8.8669 H   0  0  0  0  0  0  0  0  0  0  0  0
   30.6428   44.4404    7.6119 H   0  0  0  0  0  0  0  0  0  0  0  0
   30.0556   41.7514    4.8442 N   0  0  0  0  0  0  0  0  0  0  0  0
   30.1425   42.3155    3.5559 C   0  0  0  0  0  0  0  0  0  0  0  0
   29.7796   41.6067    2.4709 N   0  0  0  0  0  0  0  0  0  0  0  0
   29.3255   40.3362    2.5780 C   0  0  0  0  0  0  0  0  0  0  0  0
   29.2351   39.7505    3.8326 C   0  0  0  0  0  0  0  0  0  0  0  0
   29.6088   40.4754    4.9589 C   0  0  0  0  0  0  0  0  0  0  0  0
   30.5252   43.4819    3.4388 O   0  0  0  0  0  0  0  0  0  0  0  0
   28.9678   39.6427    1.4667 N   0  0  0  0  0  0  0  0  0  0  0  0
   29.0348   40.0651    0.5800 H   0  0  0  0  0  0  0  0  0  0  0  0
   28.6414   38.7174    1.5477 H   0  0  0  0  0  0  0  0  0  0  0  0
   29.5558   40.4439    8.7465 C   0  0  0  0  0  0  0  0  0  0  0  0
   30.6219   39.5490    9.0941 O   0  0  0  0  0  0  0  0  0  0  0  0
   29.6289   37.5230    7.9177 O   0  0  0  0  0  0  0  0  0  0  0  0
   30.9021   38.2251    8.1858 P   0  0  0  0  0  0  0  0  0  0  0  0
   31.7567   37.3008    9.0192 O   0  0  0  0  0  0  0  0  0  0  0  0
   31.5140   38.7864    6.9138 O   0  0  0  0  0  0  0  0  0  0  0  0
   29.8012   36.7362    7.3771 H   0  0  0  0  0  0  0  0  0  0  0  0
   31.7167   38.0595    6.3044 H   0  0  0  0  0  0  0  0  0  0  0  0
 22 23  1  0  0  0
 23 24  2  0  0  0
 23 25  1  0  0  0
 23 21  1  0  0  0
 21 20  1  0  0  0
 20  1  1  0  0  0
  1  2  1  0  0  0
  1  3  1  0  0  0
  2  7  1  0  0  0
  3  4  1  0  0  0
  3  5  1  0  0  0
  5  6  1  0  0  0
  5  7  1  0  0  0
  7 10  1  0  0  0
 10 11  1  0  0  0
 10 15  1  0  0  0
 11 12  1  0  0  0
 11 16  2  0  0  0
 12 13  2  0  0  0
 13 14  1  0  0  0
 13 17  1  0  0  0
 14 15  2  0  0  0
 22 26  1  0  0  0
 25 27  1  0  0  0
  4  8  1  0  0  0
  6  9  1  0  0  0
 17 18  1  0  0  0
 17 19  1  0  0  0
M  END
> <minimizedAffinity>
-6.82487

$$$$
3DJX_C5P_A_125


 27 28  0  0  0  0  0  0  0  0999 V2000
   30.2060   40.2956    5.2636 C   0  0  0  0  0  0  0  0  0  0  0  0
   30.8411   40.7522    6.4726 O   0  0  0  0  0  0  0  0  0  0  0  0
   29.3432   39.0938    5.6233 C   0  0  0  0  0  0  0  0  0  0  0  0
   29.5513   38.0292    4.6937 O   0  0  0  0  0  0  0  0  0  0  0  0
   29.8935   38.6078    6.9396 C   0  0  0  0  0  0  0  0  0  0  0  0
   30.8924   37.6374    6.6657 O   0  0  0  0  0  0  0  0  0  0  0  0
   30.5901   39.8130    7.5345 C   0  0  0  0  0  0  0  0  0  0  0  0
   30.4908   37.7881    4.6832 H   0  0  0  0  0  0  0  0  0  0  0  0
   31.5692   38.0241    6.0884 H   0  0  0  0  0  0  0  0  0  0  0  0
   29.7902   40.4423    8.5830 N   0  0  0  0  0  0  0  0  0  0  0  0
   30.0529   40.1422    9.9344 C   0  0  0  0  0  0  0  0  0  0  0  0
   29.3429   40.7264   10.9173 N   0  0  0  0  0  0  0  0  0  0  0  0
   28.3620   41.6180   10.6444 C   0  0  0  0  0  0  0  0  0  0  0  0
   28.0842   41.9395    9.3235 C   0  0  0  0  0  0  0  0  0  0  0  0
   28.8136   41.3413    8.3018 C   0  0  0  0  0  0  0  0  0  0  0  0
   30.9221   39.3100   10.2038 O   0  0  0  0  0  0  0  0  0  0  0  0
   27.6621   42.1944   11.6554 N   0  0  0  0  0  0  0  0  0  0  0  0
   27.8651   41.9611   12.5901 H   0  0  0  0  0  0  0  0  0  0  0  0
   26.9517   42.8454   11.4536 H   0  0  0  0  0  0  0  0  0  0  0  0
   29.4208   41.4184    4.5708 C   0  0  0  0  0  0  0  0  0  0  0  0
   29.7187   41.5930    3.1783 O   0  0  0  0  0  0  0  0  0  0  0  0
   27.8581   39.9520    2.6128 O   0  0  0  0  0  0  0  0  0  0  0  0
   29.0898   40.5695    2.0768 P   0  0  0  0  0  0  0  0  0  0  0  0
   30.0996   39.4634    1.8870 O   0  0  0  0  0  0  0  0  0  0  0  0
   28.7982   41.4629    0.8833 O   0  0  0  0  0  0  0  0  0  0  0  0
   27.4879   39.3441    1.9537 H   0  0  0  0  0  0  0  0  0  0  0  0
   28.4156   40.9316    0.1676 H   0  0  0  0  0  0  0  0  0  0  0  0
 22 23  1  0  0  0
 23 24  2  0  0  0
 23 25  1  0  0  0
 23 21  1  0  0  0
 21 20  1  0  0  0
 20  1  1  0  0  0
  1  2  1  0  0  0
  1  3  1  0  0  0
  2  7  1  0  0  0
  3  4  1  0  0  0
  3  5  1  0  0  0
  5  6  1  0  0  0
  5  7  1  0  0  0
  7 10  1  0  0  0
 10 11  1  0  0  0
 10 15  1  0  0  0
 11 12  1  0  0  0
 11 16  2  0  0  0
 12 13  2  0  0  0
 13 14  1  0  0  0
 13 17  1  0  0  0
 14 15  2  0  0  0
 22 26  1  0  0  0
 25 27  1  0  0  0
  4  8  1  0  0  0
  6  9  1  0  0  0
 17 18  1  0  0  0
 17 19  1  0  0  0
M  END
> <minimizedAffinity>
-6.62475

$$$$
3DJX_C5P_A_125


 27 28  0  0  0  0  0  0  0  0999 V2000
   30.4580   39.6599    6.2188 C   0  0  0  0  0  0  0  0  0  0  0  0
   30.3773   41.0884    6.3814 O   0  0  0  0  0  0  0  0  0  0  0  0
   30.5613   39.0444    7.6074 C   0  0  0  0  0  0  0  0  0  0  0  0
   31.5996   38.0640    7.6469 O   0  0  0  0  0  0  0  0  0  0  0  0
   31.0235   40.1731    8.4931 C   0  0  0  0  0  0  0  0  0  0  0  0
   32.4423   40.1515    8.5262 O   0  0  0  0  0  0  0  0  0  0  0  0
   30.6110   41.4316    7.7600 C   0  0  0  0  0  0  0  0  0  0  0  0
   32.4403   38.4728    7.3878 H   0  0  0  0  0  0  0  0  0  0  0  0
   32.7878   40.2099    7.6217 H   0  0  0  0  0  0  0  0  0  0  0  0
   29.4105   42.0308    8.3388 N   0  0  0  0  0  0  0  0  0  0  0  0
   29.1393   43.3964    8.1214 C   0  0  0  0  0  0  0  0  0  0  0  0
   28.0287   43.9641    8.6270 N   0  0  0  0  0  0  0  0  0  0  0  0
   27.1388   43.2482    9.3531 C   0  0  0  0  0  0  0  0  0  0  0  0
   27.3743   41.8995    9.5786 C   0  0  0  0  0  0  0  0  0  0  0  0
   28.5189   41.3048    9.0591 C   0  0  0  0  0  0  0  0  0  0  0  0
   29.9522   44.0736    7.4880 O   0  0  0  0  0  0  0  0  0  0  0  0
   26.0251   43.8454    9.8501 N   0  0  0  0  0  0  0  0  0  0  0  0
   25.8649   44.8028    9.6858 H   0  0  0  0  0  0  0  0  0  0  0  0
   25.3778   43.3210   10.3747 H   0  0  0  0  0  0  0  0  0  0  0  0
   29.2817   39.1102    5.3993 C   0  0  0  0  0  0  0  0  0  0  0  0
   29.5518   38.9292    4.0020 O   0  0  0  0  0  0  0  0  0  0  0  0
   27.5985   39.6193    2.5246 O   0  0  0  0  0  0  0  0  0  0  0  0
   28.9731   39.9977    2.9159 P   0  0  0  0  0  0  0  0  0  0  0  0
   29.8388   39.8765    1.6850 O   0  0  0  0  0  0  0  0  0  0  0  0
   29.0016   41.3196    3.6638 O   0  0  0  0  0  0  0  0  0  0  0  0
   27.2589   40.2581    1.8784 H   0  0  0  0  0  0  0  0  0  0  0  0
   28.6694   42.0249    3.0866 H   0  0  0  0  0  0  0  0  0  0  0  0
 22 23  1  0  0  0
 23 24  2  0  0  0
 23 25  1  0  0  0
 23 21  1  0  0  0
 21 20  1  0  0  0
 20  1  1  0  0  0
  1  2  1  0  0  0
  1  3  1  0  0  0
  2  7  1  0  0  0
  3  4  1  0  0  0
  3  5  1  0  0  0
  5  6  1  0  0  0
  5  7  1  0  0  0
  7 10  1  0  0  0
 10 11  1  0  0  0
 10 15  1  0  0  0
 11 12  1  0  0  0
 11 16  2  0  0  0
 12 13  2  0  0  0
 13 14  1  0  0  0
 13 17  1  0  0  0
 14 15  2  0  0  0
 22 26  1  0  0  0
 25 27  1  0  0  0
  4  8  1  0  0  0
  6  9  1  0  0  0
 17 18  1  0  0  0
 17 19  1  0  0  0
M  END
> <minimizedAffinity>
-6.36650

$$$$
3DJX_C5P_A_125


 27 28  0  0  0  0  0  0  0  0999 V2000
   30.3276   39.7132    5.0129 C   0  0  0  0  0  0  0  0  0  0  0  0
   31.0618   40.6833    5.7833 O   0  0  0  0  0  0  0  0  0  0  0  0
   29.6643   38.7550    5.9925 C   0  0  0  0  0  0  0  0  0  0  0  0
   29.8673   37.4005    5.5865 O   0  0  0  0  0  0  0  0  0  0  0  0
   30.4375   38.9232    7.2754 C   0  0  0  0  0  0  0  0  0  0  0  0
   31.4957   37.9772    7.2767 O   0  0  0  0  0  0  0  0  0  0  0  0
   31.0643   40.2971    7.1702 C   0  0  0  0  0  0  0  0  0  0  0  0
   30.8184   37.2219    5.5203 H   0  0  0  0  0  0  0  0  0  0  0  0
   32.0405   38.1003    6.4837 H   0  0  0  0  0  0  0  0  0  0  0  0
   30.3445   41.2870    7.9685 N   0  0  0  0  0  0  0  0  0  0  0  0
   31.0135   41.9634    9.0080 C   0  0  0  0  0  0  0  0  0  0  0  0
   30.3764   42.8944    9.7421 N   0  0  0  0  0  0  0  0  0  0  0  0
   29.0823   43.2134    9.5071 C   0  0  0  0  0  0  0  0  0  0  0  0
   28.3984   42.5696    8.4857 C   0  0  0  0  0  0  0  0  0  0  0  0
   29.0494   41.6072    7.7218 C   0  0  0  0  0  0  0  0  0  0  0  0
   32.1839   41.6664    9.2582 O   0  0  0  0  0  0  0  0  0  0  0  0
   28.4638   44.1580   10.2615 N   0  0  0  0  0  0  0  0  0  0  0  0
   28.9558   44.6104   10.9844 H   0  0  0  0  0  0  0  0  0  0  0  0
   27.5235   44.3905   10.0856 H   0  0  0  0  0  0  0  0  0  0  0  0
   29.3333   40.3801    4.0516 C   0  0  0  0  0  0  0  0  0  0  0  0
   29.9232   40.9592    2.8790 O   0  0  0  0  0  0  0  0  0  0  0  0
   30.1485   42.8583    1.2006 O   0  0  0  0  0  0  0  0  0  0  0  0
   29.7790   42.5585    2.6004 P   0  0  0  0  0  0  0  0  0  0  0  0
   30.7892   43.2456    3.4873 O   0  0  0  0  0  0  0  0  0  0  0  0
   28.3098   42.8375    2.8668 O   0  0  0  0  0  0  0  0  0  0  0  0
   30.0610   43.8109    1.0400 H   0  0  0  0  0  0  0  0  0  0  0  0
   28.1285   43.7796    2.7237 H   0  0  0  0  0  0  0  0  0  0  0  0
 22 23  1  0  0  0
 23 24  2  0  0  0
 23 25  1  0  0  0
 23 21  1  0  0  0
 21 20  1  0  0  0
 20  1  1  0  0  0
  1  2  1  0  0  0
  1  3  1  0  0  0
  2  7  1  0  0  0
  3  4  1  0  0  0
  3  5  1  0  0  0
  5  6  1  0  0  0
  5  7  1  0  0  0
  7 10  1  0  0  0
 10 11  1  0  0  0
 10 15  1  0  0  0
 11 12  1  0  0  0
 11 16  2  0  0  0
 12 13  2  0  0  0
 13 14  1  0  0  0
 13 17  1  0  0  0
 14 15  2  0  0  0
 22 26  1  0  0  0
 25 27  1  0  0  0
  4  8  1  0  0  0
  6  9  1  0  0  0
 17 18  1  0  0  0
 17 19  1  0  0  0
M  END
> <minimizedAffinity>
-6.20387

$$$$
3DJX_C5P_A_125


 27 28  0  0  0  0  0  0  0  0999 V2000
   30.4704   39.7411    9.0855 C   0  0  0  0  0  0  0  0  0  0  0  0
   30.9044   40.8189    9.9361 O   0  0  0  0  0  0  0  0  0  0  0  0
   30.3048   40.3028    7.6802 C   0  0  0  0  0  0  0  0  0  0  0  0
   29.0642   39.8794    7.1123 O   0  0  0  0  0  0  0  0  0  0  0  0
   30.1841   41.7925    7.8751 C   0  0  0  0  0  0  0  0  0  0  0  0
   28.8070   42.1060    8.0162 O   0  0  0  0  0  0  0  0  0  0  0  0
   30.8443   42.0610    9.2106 C   0  0  0  0  0  0  0  0  0  0  0  0
   28.3336   40.1618    7.6845 H   0  0  0  0  0  0  0  0  0  0  0  0
   28.4321   41.5934    8.7494 H   0  0  0  0  0  0  0  0  0  0  0  0
   32.1868   42.6161    9.0531 N   0  0  0  0  0  0  0  0  0  0  0  0
   32.8293   43.2096   10.1579 C   0  0  0  0  0  0  0  0  0  0  0  0
   34.0740   43.7080   10.0411 N   0  0  0  0  0  0  0  0  0  0  0  0
   34.7482   43.6538    8.8688 C   0  0  0  0  0  0  0  0  0  0  0  0
   34.1449   43.0693    7.7644 C   0  0  0  0  0  0  0  0  0  0  0  0
   32.8594   42.5511    7.8765 C   0  0  0  0  0  0  0  0  0  0  0  0
   32.2213   43.2960   11.2273 O   0  0  0  0  0  0  0  0  0  0  0  0
   36.0040   44.1626    8.7789 N   0  0  0  0  0  0  0  0  0  0  0  0
   36.4253   44.5758    9.5670 H   0  0  0  0  0  0  0  0  0  0  0  0
   36.4932   44.1183    7.9257 H   0  0  0  0  0  0  0  0  0  0  0  0
   31.4268   38.5417    9.1489 C   0  0  0  0  0  0  0  0  0  0  0  0
   32.3001   38.5256   10.2871 O   0  0  0  0  0  0  0  0  0  0  0  0
   34.3852   37.5808   11.3980 O   0  0  0  0  0  0  0  0  0  0  0  0
   33.1942   37.2014   10.6084 P   0  0  0  0  0  0  0  0  0  0  0  0
   33.6853   36.6775    9.2804 O   0  0  0  0  0  0  0  0  0  0  0  0
   32.2502   36.3162   11.4038 O   0  0  0  0  0  0  0  0  0  0  0  0
   34.9137   36.7895   11.5865 H   0  0  0  0  0  0  0  0  0  0  0  0
   32.7034   35.4924   11.6424 H   0  0  0  0  0  0  0  0  0  0  0  0
 22 23  1  0  0  0
 23 24  2  0  0  0
 23 25  1  0  0  0
 23 21  1  0  0  0
 21 20  1  0  0  0
 20  1  1  0  0  0
  1  2  1  0  0  0
  1  3  1  0  0  0
  2  7  1  0  0  0
  3  4  1  0  0  0
  3  5  1  0  0  0
  5  6  1  0  0  0
  5  7  1  0  0  0
  7 10  1  0  0  0
 10 11  1  0  0  0
 10 15  1  0  0  0
 11 12  1  0  0  0
 11 16  2  0  0  0
 12 13  2  0  0  0
 13 14  1  0  0  0
 13 17  1  0  0  0
 14 15  2  0  0  0
 22 26  1  0  0  0
 25 27  1  0  0  0
  4  8  1  0  0  0
  6  9  1  0  0  0
 17 18  1  0  0  0
 17 19  1  0  0  0
M  END
> <minimizedAffinity>
-5.95194

$$$$
3DJX_C5P_A_125


 27 28  0  0  0  0  0  0  0  0999 V2000
   30.0556   42.3560    9.3626 C   0  0  0  0  0  0  0  0  0  0  0  0
   30.3681   41.2170    8.5389 O   0  0  0  0  0  0  0  0  0  0  0  0
   29.4715   41.8331   10.6676 C   0  0  0  0  0  0  0  0  0  0  0  0
   28.2887   42.5554   11.0142 O   0  0  0  0  0  0  0  0  0  0  0  0
   29.0219   40.4298   10.3507 C   0  0  0  0  0  0  0  0  0  0  0  0
   27.6688   40.4883    9.9261 O   0  0  0  0  0  0  0  0  0  0  0  0
   29.8509   40.0213    9.1518 C   0  0  0  0  0  0  0  0  0  0  0  0
   27.6428   42.4828   10.2941 H   0  0  0  0  0  0  0  0  0  0  0  0
   27.5924   41.0932    9.1717 H   0  0  0  0  0  0  0  0  0  0  0  0
   30.9493   39.1331    9.5258 N   0  0  0  0  0  0  0  0  0  0  0  0
   31.4323   38.1922    8.5946 C   0  0  0  0  0  0  0  0  0  0  0  0
   32.4571   37.3787    8.9102 N   0  0  0  0  0  0  0  0  0  0  0  0
   33.0571   37.4380   10.1218 C   0  0  0  0  0  0  0  0  0  0  0  0
   32.6086   38.3588   11.0579 C   0  0  0  0  0  0  0  0  0  0  0  0
   31.5509   39.2037   10.7398 C   0  0  0  0  0  0  0  0  0  0  0  0
   30.8802   38.1013    7.4957 O   0  0  0  0  0  0  0  0  0  0  0  0
   34.0906   36.6068   10.4136 N   0  0  0  0  0  0  0  0  0  0  0  0
   34.4030   35.9561    9.7442 H   0  0  0  0  0  0  0  0  0  0  0  0
   34.5273   36.6549   11.2946 H   0  0  0  0  0  0  0  0  0  0  0  0
   31.2754   43.2657    9.5673 C   0  0  0  0  0  0  0  0  0  0  0  0
   31.9570   43.6418    8.3622 O   0  0  0  0  0  0  0  0  0  0  0  0
   33.2121   41.5514    7.6347 O   0  0  0  0  0  0  0  0  0  0  0  0
   33.3978   42.9722    7.9989 P   0  0  0  0  0  0  0  0  0  0  0  0
   34.2226   43.0067    9.2629 O   0  0  0  0  0  0  0  0  0  0  0  0
   33.8886   43.7958    6.8206 O   0  0  0  0  0  0  0  0  0  0  0  0
   34.0721   41.1577    7.4195 H   0  0  0  0  0  0  0  0  0  0  0  0
   34.7533   43.4641    6.5322 H   0  0  0  0  0  0  0  0  0  0  0  0
 22 23  1  0  0  0
 23 24  2  0  0  0
 23 25  1  0  0  0
 23 21  1  0  0  0
 21 20  1  0  0  0
 20  1  1  0  0  0
  1  2  1  0  0  0
  1  3  1  0  0  0
  2  7  1  0  0  0
  3  4  1  0  0  0
  3  5  1  0  0  0
  5  6  1  0  0  0
  5  7  1  0  0  0
  7 10  1  0  0  0
 10 11  1  0  0  0
 10 15  1  0  0  0
 11 12  1  0  0  0
 11 16  2  0  0  0
 12 13  2  0  0  0
 13 14  1  0  0  0
 13 17  1  0  0  0
 14 15  2  0  0  0
 22 26  1  0  0  0
 25 27  1  0  0  0
  4  8  1  0  0  0
  6  9  1  0  0  0
 17 18  1  0  0  0
 17 19  1  0  0  0
M  END
> <minimizedAffinity>
-5.93220

$$$$
