5I7Y_69G_A_201


 26 28  0  0  0  0  0  0  0  0999 V2000
  -19.3441    4.7687   11.4669 C   0  0  0  0  0  0  0  0  0  0  0  0
  -17.6690    5.0213    9.7954 C   0  0  0  0  0  0  0  0  0  0  0  0
  -16.8975    5.8366   10.5641 C   0  0  0  0  0  0  0  0  0  0  0  0
  -17.3896    6.1557   11.9151 C   0  0  0  0  0  0  0  0  0  0  0  0
  -16.9069    6.9421   12.9792 C   0  0  0  0  0  0  0  0  0  0  0  0
  -17.8096    6.8598   13.9790 C   0  0  0  0  0  0  0  0  0  0  0  0
  -18.6178    5.6092   12.3292 C   0  0  0  0  0  0  0  0  0  0  0  0
  -18.8502    4.4949   10.2401 N   0  0  0  0  0  0  0  0  0  0  0  0
  -18.8463    6.0604   13.6079 N   0  0  0  0  0  0  0  0  0  0  0  0
  -20.4110    4.2832   11.8283 O   0  0  0  0  0  0  0  0  0  0  0  0
  -19.6297    5.8414   14.1626 H   0  0  0  0  0  0  0  0  0  0  0  0
  -15.6219    6.4087   10.0382 C   0  0  0  0  0  0  0  0  0  0  0  0
  -15.0778    7.5543   10.6229 C   0  0  0  0  0  0  0  0  0  0  0  0
  -13.8921    8.0824   10.1361 C   0  0  0  0  0  0  0  0  0  0  0  0
  -13.2268    7.4769    9.0878 C   0  0  0  0  0  0  0  0  0  0  0  0
  -13.7519    6.3306    8.4894 C   0  0  0  0  0  0  0  0  0  0  0  0
  -14.9459    5.7955    8.9824 C   0  0  0  0  0  0  0  0  0  0  0  0
  -13.0469    5.6864    7.3498 C   0  0  0  0  0  0  0  0  0  0  0  0
  -13.1250    6.1463    6.2275 O   0  0  0  0  0  0  0  0  0  0  0  0
  -12.3223    4.5616    7.5368 N   0  0  0  0  0  0  0  0  0  0  0  0
  -11.6457    3.9424    6.3955 C   0  0  0  0  0  0  0  0  0  0  0  0
  -12.1991    3.9471    8.8623 C   0  0  0  0  0  0  0  0  0  0  0  0
  -19.6130    3.6203    9.3513 C   0  0  0  0  0  0  0  0  0  0  0  0
  -20.1168    4.3932    8.1545 C   0  0  0  0  0  0  0  0  0  0  0  0
  -21.3639    6.2105    7.1007 C   0  0  0  0  0  0  0  0  0  0  0  0
  -20.8669    5.4566    8.3061 C   0  0  0  0  0  0  0  0  0  0  0  0
 21 20  1  0  0  0
 20 22  1  0  0  0
 20 18  1  0  0  0
 19 18  2  0  0  0
 18 16  1  0  0  0
  6  9  1  0  0  0
  6  5  2  0  0  0
  9  7  1  0  0  0
  5  4  1  0  0  0
 17 16  2  0  0  0
 17 12  1  0  0  0
 16 15  1  0  0  0
  7  4  2  0  0  0
  7  1  1  0  0  0
  4  3  1  0  0  0
 10  1  2  0  0  0
  1  8  1  0  0  0
  3 12  1  0  0  0
  3  2  2  0  0  0
 12 13  2  0  0  0
 15 14  2  0  0  0
  8  2  1  0  0  0
  8 23  1  0  0  0
 13 14  1  0  0  0
 23 24  1  0  0  0
 24 26  2  0  0  0
 26 25  1  0  0  0
  9 11  1  0  0  0
M  END
> <minimizedAffinity>
-10.38104

$$$$
5I7Y_69G_A_201


 26 28  0  0  0  0  0  0  0  0999 V2000
  -19.3057    4.8660   11.3597 C   0  0  0  0  0  0  0  0  0  0  0  0
  -17.4627    4.9484    9.8561 C   0  0  0  0  0  0  0  0  0  0  0  0
  -16.7106    5.7282   10.6788 C   0  0  0  0  0  0  0  0  0  0  0  0
  -17.3057    6.1214   11.9674 C   0  0  0  0  0  0  0  0  0  0  0  0
  -16.8708    6.9018   13.0561 C   0  0  0  0  0  0  0  0  0  0  0  0
  -17.8695    6.9139   13.9638 C   0  0  0  0  0  0  0  0  0  0  0  0
  -18.6054    5.6770   12.2705 C   0  0  0  0  0  0  0  0  0  0  0  0
  -18.7173    4.5216   10.1938 N   0  0  0  0  0  0  0  0  0  0  0  0
  -18.9222    6.1807   13.5102 N   0  0  0  0  0  0  0  0  0  0  0  0
  -20.4356    4.4694   11.6249 O   0  0  0  0  0  0  0  0  0  0  0  0
  -19.7696    6.0351   13.9897 H   0  0  0  0  0  0  0  0  0  0  0  0
  -15.3511    6.1913   10.2686 C   0  0  0  0  0  0  0  0  0  0  0  0
  -14.3516    5.2575    9.9870 C   0  0  0  0  0  0  0  0  0  0  0  0
  -13.0911    5.6883    9.6031 C   0  0  0  0  0  0  0  0  0  0  0  0
  -12.8136    7.0355    9.4751 C   0  0  0  0  0  0  0  0  0  0  0  0
  -13.7979    7.9860    9.7502 C   0  0  0  0  0  0  0  0  0  0  0  0
  -15.0704    7.5517   10.1339 C   0  0  0  0  0  0  0  0  0  0  0  0
  -13.4972    9.4371    9.6297 C   0  0  0  0  0  0  0  0  0  0  0  0
  -13.5122    9.9895    8.5472 O   0  0  0  0  0  0  0  0  0  0  0  0
  -13.1786   10.1664   10.7215 N   0  0  0  0  0  0  0  0  0  0  0  0
  -12.8777   11.5915   10.5732 C   0  0  0  0  0  0  0  0  0  0  0  0
  -13.1283    9.5584   12.0547 C   0  0  0  0  0  0  0  0  0  0  0  0
  -19.4537    3.6786    9.2538 C   0  0  0  0  0  0  0  0  0  0  0  0
  -19.9558    4.5000    8.0891 C   0  0  0  0  0  0  0  0  0  0  0  0
  -21.3526    6.2362    7.0875 C   0  0  0  0  0  0  0  0  0  0  0  0
  -20.8606    5.4315    8.2618 C   0  0  0  0  0  0  0  0  0  0  0  0
 21 20  1  0  0  0
 20 22  1  0  0  0
 20 18  1  0  0  0
 19 18  2  0  0  0
 18 16  1  0  0  0
  6  9  1  0  0  0
  6  5  2  0  0  0
  9  7  1  0  0  0
  5  4  1  0  0  0
 17 16  2  0  0  0
 17 12  1  0  0  0
 16 15  1  0  0  0
  7  4  2  0  0  0
  7  1  1  0  0  0
  4  3  1  0  0  0
 10  1  2  0  0  0
  1  8  1  0  0  0
  3 12  1  0  0  0
  3  2  2  0  0  0
 12 13  2  0  0  0
 15 14  2  0  0  0
  8  2  1  0  0  0
  8 23  1  0  0  0
 13 14  1  0  0  0
 23 24  1  0  0  0
 24 26  2  0  0  0
 26 25  1  0  0  0
  9 11  1  0  0  0
M  END
> <minimizedAffinity>
-9.96583

$$$$
5I7Y_69G_A_201


 26 28  0  0  0  0  0  0  0  0999 V2000
  -19.3123    4.8328   11.3726 C   0  0  0  0  0  0  0  0  0  0  0  0
  -17.4680    4.8790    9.8690 C   0  0  0  0  0  0  0  0  0  0  0  0
  -16.7114    5.6674   10.6795 C   0  0  0  0  0  0  0  0  0  0  0  0
  -17.3048    6.0852   11.9611 C   0  0  0  0  0  0  0  0  0  0  0  0
  -16.8656    6.8805   13.0373 C   0  0  0  0  0  0  0  0  0  0  0  0
  -17.8647    6.9137   13.9440 C   0  0  0  0  0  0  0  0  0  0  0  0
  -18.6075    5.6540   12.2706 C   0  0  0  0  0  0  0  0  0  0  0  0
  -18.7254    4.4658   10.2129 N   0  0  0  0  0  0  0  0  0  0  0  0
  -18.9217    6.1799   13.5017 N   0  0  0  0  0  0  0  0  0  0  0  0
  -20.4449    4.4477   11.6435 O   0  0  0  0  0  0  0  0  0  0  0  0
  -19.7702    6.0474   13.9830 H   0  0  0  0  0  0  0  0  0  0  0  0
  -15.3488    6.1152   10.2626 C   0  0  0  0  0  0  0  0  0  0  0  0
  -14.3289    5.1771   10.0895 C   0  0  0  0  0  0  0  0  0  0  0  0
  -13.0654    5.5934    9.6993 C   0  0  0  0  0  0  0  0  0  0  0  0
  -12.8045    6.9284    9.4588 C   0  0  0  0  0  0  0  0  0  0  0  0
  -13.8093    7.8828    9.6244 C   0  0  0  0  0  0  0  0  0  0  0  0
  -15.0847    7.4629   10.0144 C   0  0  0  0  0  0  0  0  0  0  0  0
  -13.5269    9.3224    9.3826 C   0  0  0  0  0  0  0  0  0  0  0  0
  -13.7987   10.1607   10.2196 O   0  0  0  0  0  0  0  0  0  0  0  0
  -12.9819    9.7296    8.2153 N   0  0  0  0  0  0  0  0  0  0  0  0
  -12.7229   11.1543    7.9995 C   0  0  0  0  0  0  0  0  0  0  0  0
  -12.6436    8.7717    7.1582 C   0  0  0  0  0  0  0  0  0  0  0  0
  -19.4667    3.6122    9.2862 C   0  0  0  0  0  0  0  0  0  0  0  0
  -19.9777    4.4211    8.1166 C   0  0  0  0  0  0  0  0  0  0  0  0
  -21.3221    6.1997    7.1177 C   0  0  0  0  0  0  0  0  0  0  0  0
  -20.8198    5.4084    8.2968 C   0  0  0  0  0  0  0  0  0  0  0  0
 21 20  1  0  0  0
 20 22  1  0  0  0
 20 18  1  0  0  0
 19 18  2  0  0  0
 18 16  1  0  0  0
  6  9  1  0  0  0
  6  5  2  0  0  0
  9  7  1  0  0  0
  5  4  1  0  0  0
 17 16  2  0  0  0
 17 12  1  0  0  0
 16 15  1  0  0  0
  7  4  2  0  0  0
  7  1  1  0  0  0
  4  3  1  0  0  0
 10  1  2  0  0  0
  1  8  1  0  0  0
  3 12  1  0  0  0
  3  2  2  0  0  0
 12 13  2  0  0  0
 15 14  2  0  0  0
  8  2  1  0  0  0
  8 23  1  0  0  0
 13 14  1  0  0  0
 23 24  1  0  0  0
 24 26  2  0  0  0
 26 25  1  0  0  0
  9 11  1  0  0  0
M  END
> <minimizedAffinity>
-9.89603

$$$$
5I7Y_69G_A_201


 26 28  0  0  0  0  0  0  0  0999 V2000
  -19.6528    4.9783   10.9431 C   0  0  0  0  0  0  0  0  0  0  0  0
  -17.8437    4.3028    9.5522 C   0  0  0  0  0  0  0  0  0  0  0  0
  -16.9053    4.9209   10.3192 C   0  0  0  0  0  0  0  0  0  0  0  0
  -17.3770    5.6411   11.5142 C   0  0  0  0  0  0  0  0  0  0  0  0
  -16.7457    6.3903   12.5260 C   0  0  0  0  0  0  0  0  0  0  0  0
  -17.7105    6.8222   13.3650 C   0  0  0  0  0  0  0  0  0  0  0  0
  -18.7561    5.6530   11.7907 C   0  0  0  0  0  0  0  0  0  0  0  0
  -19.1752    4.3224    9.8635 N   0  0  0  0  0  0  0  0  0  0  0  0
  -18.9279    6.3873   12.9405 N   0  0  0  0  0  0  0  0  0  0  0  0
  -20.8551    4.9792   11.1863 O   0  0  0  0  0  0  0  0  0  0  0  0
  -19.7886    6.5682   13.3830 H   0  0  0  0  0  0  0  0  0  0  0  0
  -15.4614    4.8945    9.9378 C   0  0  0  0  0  0  0  0  0  0  0  0
  -14.5869    4.0138   10.5781 C   0  0  0  0  0  0  0  0  0  0  0  0
  -13.2476    3.9879   10.2210 C   0  0  0  0  0  0  0  0  0  0  0  0
  -12.7668    4.8113    9.2215 C   0  0  0  0  0  0  0  0  0  0  0  0
  -13.6234    5.6983    8.5676 C   0  0  0  0  0  0  0  0  0  0  0  0
  -14.9749    5.7222    8.9249 C   0  0  0  0  0  0  0  0  0  0  0  0
  -13.1053    6.5978    7.5031 C   0  0  0  0  0  0  0  0  0  0  0  0
  -12.9947    6.2089    6.3570 O   0  0  0  0  0  0  0  0  0  0  0  0
  -12.7253    7.8610    7.7951 N   0  0  0  0  0  0  0  0  0  0  0  0
  -12.2098    8.7226    6.7296 C   0  0  0  0  0  0  0  0  0  0  0  0
  -12.8192    8.3878    9.1601 C   0  0  0  0  0  0  0  0  0  0  0  0
  -20.1156    3.6245    8.9887 C   0  0  0  0  0  0  0  0  0  0  0  0
  -19.9732    2.1285    9.1466 C   0  0  0  0  0  0  0  0  0  0  0  0
  -20.7168   -0.0609    9.9357 C   0  0  0  0  0  0  0  0  0  0  0  0
  -20.8792    1.4288    9.7839 C   0  0  0  0  0  0  0  0  0  0  0  0
 21 20  1  0  0  0
 20 22  1  0  0  0
 20 18  1  0  0  0
 19 18  2  0  0  0
 18 16  1  0  0  0
  6  9  1  0  0  0
  6  5  2  0  0  0
  9  7  1  0  0  0
  5  4  1  0  0  0
 17 16  2  0  0  0
 17 12  1  0  0  0
 16 15  1  0  0  0
  7  4  2  0  0  0
  7  1  1  0  0  0
  4  3  1  0  0  0
 10  1  2  0  0  0
  1  8  1  0  0  0
  3 12  1  0  0  0
  3  2  2  0  0  0
 12 13  2  0  0  0
 15 14  2  0  0  0
  8  2  1  0  0  0
  8 23  1  0  0  0
 13 14  1  0  0  0
 23 24  1  0  0  0
 24 26  2  0  0  0
 26 25  1  0  0  0
  9 11  1  0  0  0
M  END
> <minimizedAffinity>
-9.33872

$$$$
5I7Y_69G_A_201


 26 28  0  0  0  0  0  0  0  0999 V2000
  -19.6980    4.6575   11.2307 C   0  0  0  0  0  0  0  0  0  0  0  0
  -17.8711    4.0766    9.8203 C   0  0  0  0  0  0  0  0  0  0  0  0
  -16.9679    4.7907   10.5449 C   0  0  0  0  0  0  0  0  0  0  0  0
  -17.4691    5.5125   11.7269 C   0  0  0  0  0  0  0  0  0  0  0  0
  -16.8771    6.3419   12.6991 C   0  0  0  0  0  0  0  0  0  0  0  0
  -17.8549    6.7264   13.5460 C   0  0  0  0  0  0  0  0  0  0  0  0
  -18.8390    5.4275   12.0349 C   0  0  0  0  0  0  0  0  0  0  0  0
  -19.1933    4.0041   10.1619 N   0  0  0  0  0  0  0  0  0  0  0  0
  -19.0434    6.1849   13.1643 N   0  0  0  0  0  0  0  0  0  0  0  0
  -20.8913    4.5741   11.5018 O   0  0  0  0  0  0  0  0  0  0  0  0
  -19.9062    6.3140   13.6206 H   0  0  0  0  0  0  0  0  0  0  0  0
  -15.5345    4.8627   10.1311 C   0  0  0  0  0  0  0  0  0  0  0  0
  -15.0224    6.0452    9.5929 C   0  0  0  0  0  0  0  0  0  0  0  0
  -13.6911    6.1120    9.2121 C   0  0  0  0  0  0  0  0  0  0  0  0
  -12.8539    5.0256    9.3769 C   0  0  0  0  0  0  0  0  0  0  0  0
  -13.3443    3.8343    9.9139 C   0  0  0  0  0  0  0  0  0  0  0  0
  -14.6861    3.7678   10.3013 C   0  0  0  0  0  0  0  0  0  0  0  0
  -12.4497    2.6580   10.0767 C   0  0  0  0  0  0  0  0  0  0  0  0
  -12.3223    2.1158   11.1570 O   0  0  0  0  0  0  0  0  0  0  0  0
  -11.7419    2.1821    9.0289 N   0  0  0  0  0  0  0  0  0  0  0  0
  -10.8611    1.0282    9.2190 C   0  0  0  0  0  0  0  0  0  0  0  0
  -11.8384    2.7988    7.7022 C   0  0  0  0  0  0  0  0  0  0  0  0
  -20.0946    3.2066    9.3322 C   0  0  0  0  0  0  0  0  0  0  0  0
  -19.3229    2.1440    8.5847 C   0  0  0  0  0  0  0  0  0  0  0  0
  -18.6928   -0.1697    8.1176 C   0  0  0  0  0  0  0  0  0  0  0  0
  -19.4751    0.8745    8.8701 C   0  0  0  0  0  0  0  0  0  0  0  0
 21 20  1  0  0  0
 20 22  1  0  0  0
 20 18  1  0  0  0
 19 18  2  0  0  0
 18 16  1  0  0  0
  6  9  1  0  0  0
  6  5  2  0  0  0
  9  7  1  0  0  0
  5  4  1  0  0  0
 17 16  2  0  0  0
 17 12  1  0  0  0
 16 15  1  0  0  0
  7  4  2  0  0  0
  7  1  1  0  0  0
  4  3  1  0  0  0
 10  1  2  0  0  0
  1  8  1  0  0  0
  3 12  1  0  0  0
  3  2  2  0  0  0
 12 13  2  0  0  0
 15 14  2  0  0  0
  8  2  1  0  0  0
  8 23  1  0  0  0
 13 14  1  0  0  0
 23 24  1  0  0  0
 24 26  2  0  0  0
 26 25  1  0  0  0
  9 11  1  0  0  0
M  END
> <minimizedAffinity>
-8.63947

$$$$
5I7Y_69G_A_201


 26 28  0  0  0  0  0  0  0  0999 V2000
  -12.9857    5.3563    8.1322 C   0  0  0  0  0  0  0  0  0  0  0  0
  -14.8513    4.2985    9.1642 C   0  0  0  0  0  0  0  0  0  0  0  0
  -15.3111    5.4514    9.7211 C   0  0  0  0  0  0  0  0  0  0  0  0
  -14.5395    6.6797    9.4661 C   0  0  0  0  0  0  0  0  0  0  0  0
  -14.6738    8.0264    9.8560 C   0  0  0  0  0  0  0  0  0  0  0  0
  -13.6412    8.7049    9.3133 C   0  0  0  0  0  0  0  0  0  0  0  0
  -13.3809    6.5927    8.6731 C   0  0  0  0  0  0  0  0  0  0  0  0
  -13.7290    4.2571    8.3839 N   0  0  0  0  0  0  0  0  0  0  0  0
  -12.8522    7.8597    8.5958 N   0  0  0  0  0  0  0  0  0  0  0  0
  -11.9810    5.2787    7.4329 O   0  0  0  0  0  0  0  0  0  0  0  0
  -12.0383    8.1132    8.1033 H   0  0  0  0  0  0  0  0  0  0  0  0
  -16.5304    5.4557   10.5839 C   0  0  0  0  0  0  0  0  0  0  0  0
  -16.7333    6.4904   11.4996 C   0  0  0  0  0  0  0  0  0  0  0  0
  -17.8670    6.4951   12.2975 C   0  0  0  0  0  0  0  0  0  0  0  0
  -18.8141    5.4958   12.1851 C   0  0  0  0  0  0  0  0  0  0  0  0
  -18.6322    4.4528   11.2757 C   0  0  0  0  0  0  0  0  0  0  0  0
  -17.4907    4.4496   10.4683 C   0  0  0  0  0  0  0  0  0  0  0  0
  -19.6416    3.3668   11.1646 C   0  0  0  0  0  0  0  0  0  0  0  0
  -19.9975    2.7431   12.1451 O   0  0  0  0  0  0  0  0  0  0  0  0
  -20.1671    3.0367    9.9645 N   0  0  0  0  0  0  0  0  0  0  0  0
  -21.1524    1.9569    9.8820 C   0  0  0  0  0  0  0  0  0  0  0  0
  -19.7702    3.7395    8.7405 C   0  0  0  0  0  0  0  0  0  0  0  0
  -13.3094    2.9766    7.8171 C   0  0  0  0  0  0  0  0  0  0  0  0
  -12.5525    2.1671    8.8442 C   0  0  0  0  0  0  0  0  0  0  0  0
  -10.5059    1.3480    9.8974 C   0  0  0  0  0  0  0  0  0  0  0  0
  -11.2426    2.1657    8.8692 C   0  0  0  0  0  0  0  0  0  0  0  0
 21 20  1  0  0  0
 20 22  1  0  0  0
 20 18  1  0  0  0
 19 18  2  0  0  0
 18 16  1  0  0  0
  6  9  1  0  0  0
  6  5  2  0  0  0
  9  7  1  0  0  0
  5  4  1  0  0  0
 17 16  2  0  0  0
 17 12  1  0  0  0
 16 15  1  0  0  0
  7  4  2  0  0  0
  7  1  1  0  0  0
  4  3  1  0  0  0
 10  1  2  0  0  0
  1  8  1  0  0  0
  3 12  1  0  0  0
  3  2  2  0  0  0
 12 13  2  0  0  0
 15 14  2  0  0  0
  8  2  1  0  0  0
  8 23  1  0  0  0
 13 14  1  0  0  0
 23 24  1  0  0  0
 24 26  2  0  0  0
 26 25  1  0  0  0
  9 11  1  0  0  0
M  END
> <minimizedAffinity>
-7.97622

$$$$
5I7Y_69G_A_201


 26 28  0  0  0  0  0  0  0  0999 V2000
  -12.7841    5.8812    8.8116 C   0  0  0  0  0  0  0  0  0  0  0  0
  -14.7547    6.8708    9.7068 C   0  0  0  0  0  0  0  0  0  0  0  0
  -15.1734    5.7188   10.2970 C   0  0  0  0  0  0  0  0  0  0  0  0
  -14.3229    4.5276   10.1325 C   0  0  0  0  0  0  0  0  0  0  0  0
  -14.4069    3.1899   10.5650 C   0  0  0  0  0  0  0  0  0  0  0  0
  -13.3191    2.5472   10.0908 C   0  0  0  0  0  0  0  0  0  0  0  0
  -13.1406    4.6451    9.3796 C   0  0  0  0  0  0  0  0  0  0  0  0
  -13.5889    6.9499    8.9963 N   0  0  0  0  0  0  0  0  0  0  0  0
  -12.5433    3.4065    9.3759 N   0  0  0  0  0  0  0  0  0  0  0  0
  -11.7492    5.9891    8.1621 O   0  0  0  0  0  0  0  0  0  0  0  0
  -11.6954    3.1794    8.9301 H   0  0  0  0  0  0  0  0  0  0  0  0
  -16.4623    5.6648   11.0498 C   0  0  0  0  0  0  0  0  0  0  0  0
  -16.7642    6.6543   11.9880 C   0  0  0  0  0  0  0  0  0  0  0  0
  -17.9623    6.6050   12.6837 C   0  0  0  0  0  0  0  0  0  0  0  0
  -18.8759    5.5964   12.4465 C   0  0  0  0  0  0  0  0  0  0  0  0
  -18.5954    4.5980   11.5125 C   0  0  0  0  0  0  0  0  0  0  0  0
  -17.3887    4.6494   10.8080 C   0  0  0  0  0  0  0  0  0  0  0  0
  -19.5694    3.5018   11.2674 C   0  0  0  0  0  0  0  0  0  0  0  0
  -19.9649    2.8030   12.1798 O   0  0  0  0  0  0  0  0  0  0  0  0
  -20.0175    3.2464   10.0186 N   0  0  0  0  0  0  0  0  0  0  0  0
  -20.9692    2.1549    9.8039 C   0  0  0  0  0  0  0  0  0  0  0  0
  -19.5692    4.0422    8.8716 C   0  0  0  0  0  0  0  0  0  0  0  0
  -13.2095    8.2301    8.4015 C   0  0  0  0  0  0  0  0  0  0  0  0
  -13.5646    9.3692    9.3286 C   0  0  0  0  0  0  0  0  0  0  0  0
  -13.6093   11.7267    9.9679 C   0  0  0  0  0  0  0  0  0  0  0  0
  -13.2516   10.6054    9.0281 C   0  0  0  0  0  0  0  0  0  0  0  0
 21 20  1  0  0  0
 20 22  1  0  0  0
 20 18  1  0  0  0
 19 18  2  0  0  0
 18 16  1  0  0  0
  6  9  1  0  0  0
  6  5  2  0  0  0
  9  7  1  0  0  0
  5  4  1  0  0  0
 17 16  2  0  0  0
 17 12  1  0  0  0
 16 15  1  0  0  0
  7  4  2  0  0  0
  7  1  1  0  0  0
  4  3  1  0  0  0
 10  1  2  0  0  0
  1  8  1  0  0  0
  3 12  1  0  0  0
  3  2  2  0  0  0
 12 13  2  0  0  0
 15 14  2  0  0  0
  8  2  1  0  0  0
  8 23  1  0  0  0
 13 14  1  0  0  0
 23 24  1  0  0  0
 24 26  2  0  0  0
 26 25  1  0  0  0
  9 11  1  0  0  0
M  END
> <minimizedAffinity>
-7.96538

$$$$
5I7Y_69G_A_201


 26 28  0  0  0  0  0  0  0  0999 V2000
  -17.1779    4.7848   10.5008 C   0  0  0  0  0  0  0  0  0  0  0  0
  -16.0922    6.6788   11.4484 C   0  0  0  0  0  0  0  0  0  0  0  0
  -16.8600    6.6697   12.5715 C   0  0  0  0  0  0  0  0  0  0  0  0
  -17.8897    5.6220   12.6773 C   0  0  0  0  0  0  0  0  0  0  0  0
  -18.8600    5.2883   13.6421 C   0  0  0  0  0  0  0  0  0  0  0  0
  -19.5341    4.2155   13.1770 C   0  0  0  0  0  0  0  0  0  0  0  0
  -18.0232    4.7021   11.6216 C   0  0  0  0  0  0  0  0  0  0  0  0
  -16.2407    5.7559   10.4503 N   0  0  0  0  0  0  0  0  0  0  0  0
  -19.0440    3.8462   11.9625 N   0  0  0  0  0  0  0  0  0  0  0  0
  -17.2857    3.9787    9.5826 O   0  0  0  0  0  0  0  0  0  0  0  0
  -19.3666    3.0918   11.4185 H   0  0  0  0  0  0  0  0  0  0  0  0
  -16.6823    7.7054   13.6329 C   0  0  0  0  0  0  0  0  0  0  0  0
  -15.6722    8.6622   13.5118 C   0  0  0  0  0  0  0  0  0  0  0  0
  -15.5103    9.6250   14.4960 C   0  0  0  0  0  0  0  0  0  0  0  0
  -16.3512    9.6640   15.5913 C   0  0  0  0  0  0  0  0  0  0  0  0
  -17.3680    8.7183   15.7319 C   0  0  0  0  0  0  0  0  0  0  0  0
  -17.5339    7.7493   14.7377 C   0  0  0  0  0  0  0  0  0  0  0  0
  -18.2638    8.7475   16.9182 C   0  0  0  0  0  0  0  0  0  0  0  0
  -17.9557    8.1782   17.9468 O   0  0  0  0  0  0  0  0  0  0  0  0
  -19.4512    9.3902   16.8676 N   0  0  0  0  0  0  0  0  0  0  0  0
  -20.3184    9.3954   18.0472 C   0  0  0  0  0  0  0  0  0  0  0  0
  -19.8897   10.0844   15.6529 C   0  0  0  0  0  0  0  0  0  0  0  0
  -15.3672    5.8335    9.2807 C   0  0  0  0  0  0  0  0  0  0  0  0
  -14.0738    5.0956    9.5376 C   0  0  0  0  0  0  0  0  0  0  0  0
  -12.3820    3.4135    9.0113 C   0  0  0  0  0  0  0  0  0  0  0  0
  -13.6716    4.1412    8.7353 C   0  0  0  0  0  0  0  0  0  0  0  0
 21 20  1  0  0  0
 20 22  1  0  0  0
 20 18  1  0  0  0
 19 18  2  0  0  0
 18 16  1  0  0  0
  6  9  1  0  0  0
  6  5  2  0  0  0
  9  7  1  0  0  0
  5  4  1  0  0  0
 17 16  2  0  0  0
 17 12  1  0  0  0
 16 15  1  0  0  0
  7  4  2  0  0  0
  7  1  1  0  0  0
  4  3  1  0  0  0
 10  1  2  0  0  0
  1  8  1  0  0  0
  3 12  1  0  0  0
  3  2  2  0  0  0
 12 13  2  0  0  0
 15 14  2  0  0  0
  8  2  1  0  0  0
  8 23  1  0  0  0
 13 14  1  0  0  0
 23 24  1  0  0  0
 24 26  2  0  0  0
 26 25  1  0  0  0
  9 11  1  0  0  0
M  END
> <minimizedAffinity>
-7.62504

$$$$
5I7Y_69G_A_201


 26 28  0  0  0  0  0  0  0  0999 V2000
  -18.9160    4.7982   12.4258 C   0  0  0  0  0  0  0  0  0  0  0  0
  -16.6213    5.2007   11.9397 C   0  0  0  0  0  0  0  0  0  0  0  0
  -16.6675    4.5512   10.7452 C   0  0  0  0  0  0  0  0  0  0  0  0
  -17.9574    3.9638   10.3450 C   0  0  0  0  0  0  0  0  0  0  0  0
  -18.4016    3.2302    9.2278 C   0  0  0  0  0  0  0  0  0  0  0  0
  -19.7071    2.9511    9.4257 C   0  0  0  0  0  0  0  0  0  0  0  0
  -19.0564    4.1020   11.2121 C   0  0  0  0  0  0  0  0  0  0  0  0
  -17.7168    5.3292   12.7481 N   0  0  0  0  0  0  0  0  0  0  0  0
  -20.1206    3.4690   10.6141 N   0  0  0  0  0  0  0  0  0  0  0  0
  -19.8746    4.9282   13.1800 O   0  0  0  0  0  0  0  0  0  0  0  0
  -21.0304    3.4017   10.9842 H   0  0  0  0  0  0  0  0  0  0  0  0
  -15.4458    4.4139    9.8968 C   0  0  0  0  0  0  0  0  0  0  0  0
  -14.7322    3.2135    9.8906 C   0  0  0  0  0  0  0  0  0  0  0  0
  -13.6004    3.0861    9.1003 C   0  0  0  0  0  0  0  0  0  0  0  0
  -13.1772    4.1287    8.2990 C   0  0  0  0  0  0  0  0  0  0  0  0
  -13.8761    5.3368    8.2888 C   0  0  0  0  0  0  0  0  0  0  0  0
  -15.0197    5.4645    9.0830 C   0  0  0  0  0  0  0  0  0  0  0  0
  -13.4132    6.4666    7.4402 C   0  0  0  0  0  0  0  0  0  0  0  0
  -13.5624    6.4429    6.2342 O   0  0  0  0  0  0  0  0  0  0  0  0
  -12.7959    7.5337    7.9929 N   0  0  0  0  0  0  0  0  0  0  0  0
  -12.3416    8.6282    7.1331 C   0  0  0  0  0  0  0  0  0  0  0  0
  -12.5715    7.6185    9.4393 C   0  0  0  0  0  0  0  0  0  0  0  0
  -17.5813    6.0507   14.0122 C   0  0  0  0  0  0  0  0  0  0  0  0
  -16.8208    7.3400   13.8056 C   0  0  0  0  0  0  0  0  0  0  0  0
  -16.0713    9.5624   14.4895 C   0  0  0  0  0  0  0  0  0  0  0  0
  -16.8312    8.2819   14.7161 C   0  0  0  0  0  0  0  0  0  0  0  0
 21 20  1  0  0  0
 20 22  1  0  0  0
 20 18  1  0  0  0
 19 18  2  0  0  0
 18 16  1  0  0  0
  6  9  1  0  0  0
  6  5  2  0  0  0
  9  7  1  0  0  0
  5  4  1  0  0  0
 17 16  2  0  0  0
 17 12  1  0  0  0
 16 15  1  0  0  0
  7  4  2  0  0  0
  7  1  1  0  0  0
  4  3  1  0  0  0
 10  1  2  0  0  0
  1  8  1  0  0  0
  3 12  1  0  0  0
  3  2  2  0  0  0
 12 13  2  0  0  0
 15 14  2  0  0  0
  8  2  1  0  0  0
  8 23  1  0  0  0
 13 14  1  0  0  0
 23 24  1  0  0  0
 24 26  2  0  0  0
 26 25  1  0  0  0
  9 11  1  0  0  0
M  END
> <minimizedAffinity>
-7.54735

$$$$
