4PFT_MAB_A_601


 31 32  0  0  0  0  0  0  0  0999 V2000
  122.8506  100.1921   13.6663 O   0  0  0  0  0  0  0  0  0  0  0  0
  123.6885  102.8642   11.1023 C   0  0  0  0  0  0  0  0  0  0  0  0
  125.0274  102.3857   11.5464 C   0  0  0  0  0  0  0  0  0  0  0  0
  124.4834  101.1257   12.1486 C   0  0  0  0  0  0  0  0  0  0  0  0
  123.4535  101.4504   13.2260 C   0  0  0  0  0  0  0  0  0  0  0  0
  122.3445  102.3506   12.7051 C   0  0  0  0  0  0  0  0  0  0  0  0
  125.5964  103.1697   12.6032 O   0  0  0  0  0  0  0  0  0  0  0  0
  125.5511  100.3159   12.6489 O   0  0  0  0  0  0  0  0  0  0  0  0
  122.9165  103.5865   12.1272 O   0  0  0  0  0  0  0  0  0  0  0  0
  123.4575  103.1661    9.8125 O   0  0  0  0  0  0  0  0  0  0  0  0
  124.9588  103.2435   13.3304 H   0  0  0  0  0  0  0  0  0  0  0  0
  126.0283  100.8011   13.3401 H   0  0  0  0  0  0  0  0  0  0  0  0
  123.8270  104.0408    9.6140 H   0  0  0  0  0  0  0  0  0  0  0  0
  121.2895  102.7182   13.7255 C   0  0  0  0  0  0  0  0  0  0  0  0
  120.3164  101.6750   13.8390 O   0  0  0  0  0  0  0  0  0  0  0  0
  119.8831  101.5423   12.9813 H   0  0  0  0  0  0  0  0  0  0  0  0
  123.1794   99.9342   15.0129 C   0  0  0  0  0  0  0  0  0  0  0  0
  122.3746   98.7694   15.5341 C   0  0  0  0  0  0  0  0  0  0  0  0
  122.8071   98.3933   16.9279 C   0  0  0  0  0  0  0  0  0  0  0  0
  124.2957   98.1622   17.0286 C   0  0  0  0  0  0  0  0  0  0  0  0
  125.0323   99.3870   16.4677 C   0  0  0  0  0  0  0  0  0  0  0  0
  122.5767   97.6598   14.5951 O   0  0  0  0  0  0  0  0  0  0  0  0
  122.1047   97.1791   17.3366 O   0  0  0  0  0  0  0  0  0  0  0  0
  124.6568   97.9794   18.4061 O   0  0  0  0  0  0  0  0  0  0  0  0
  124.6297   99.6362   15.0961 O   0  0  0  0  0  0  0  0  0  0  0  0
  123.5213   97.4440   14.5482 H   0  0  0  0  0  0  0  0  0  0  0  0
  122.3405   96.4525   16.7389 H   0  0  0  0  0  0  0  0  0  0  0  0
  124.4121   98.7700   18.9121 H   0  0  0  0  0  0  0  0  0  0  0  0
  126.5365   99.3020   16.5056 C   0  0  0  0  0  0  0  0  0  0  0  0
  126.9859   97.9841   16.1885 O   0  0  0  0  0  0  0  0  0  0  0  0
  126.6338   97.3571   16.8395 H   0  0  0  0  0  0  0  0  0  0  0  0
  2  3  1  0  0  0
  2  9  1  0  0  0
  2 10  1  0  0  0
  3  4  1  0  0  0
  3  7  1  0  0  0
  4  5  1  0  0  0
  4  8  1  0  0  0
  5  6  1  0  0  0
  5  1  1  0  0  0
  6 14  1  0  0  0
  6  9  1  0  0  0
 14 15  1  0  0  0
  1 17  1  0  0  0
 17 18  1  0  0  0
 17 25  1  0  0  0
 18 19  1  0  0  0
 18 22  1  0  0  0
 19 20  1  0  0  0
 19 23  1  0  0  0
 20 21  1  0  0  0
 20 24  1  0  0  0
 21 29  1  0  0  0
 21 25  1  0  0  0
 29 30  1  0  0  0
  7 11  1  0  0  0
  8 12  1  0  0  0
 15 16  1  0  0  0
 22 26  1  0  0  0
 23 27  1  0  0  0
 24 28  1  0  0  0
 30 31  1  0  0  0
 10 13  1  0  0  0
M  END
> <minimizedAffinity>
-11.06695

$$$$
4PFT_MAB_A_601


 31 32  0  0  0  0  0  0  0  0999 V2000
  123.1426  101.8700   14.1989 O   0  0  0  0  0  0  0  0  0  0  0  0
  125.8747   99.5265   15.4069 C   0  0  0  0  0  0  0  0  0  0  0  0
  126.3606   99.9541   14.0653 C   0  0  0  0  0  0  0  0  0  0  0  0
  125.4350  101.1310   13.9994 C   0  0  0  0  0  0  0  0  0  0  0  0
  123.9836  100.6758   14.1157 C   0  0  0  0  0  0  0  0  0  0  0  0
  123.7443   99.8396   15.3628 C   0  0  0  0  0  0  0  0  0  0  0  0
  126.0028   99.0518   13.0102 O   0  0  0  0  0  0  0  0  0  0  0  0
  125.6717  101.8796   12.8037 O   0  0  0  0  0  0  0  0  0  0  0  0
  124.6674   98.6838   15.3899 O   0  0  0  0  0  0  0  0  0  0  0  0
  126.7293   99.3798   16.4347 O   0  0  0  0  0  0  0  0  0  0  0  0
  125.0468   98.8892   13.0341 H   0  0  0  0  0  0  0  0  0  0  0  0
  125.5031  101.3173   12.0315 H   0  0  0  0  0  0  0  0  0  0  0  0
  127.2004   98.5366   16.3456 H   0  0  0  0  0  0  0  0  0  0  0  0
  122.3239   99.3485   15.5381 C   0  0  0  0  0  0  0  0  0  0  0  0
  122.0159   98.3462   14.5641 O   0  0  0  0  0  0  0  0  0  0  0  0
  122.1049   98.7219   13.6742 H   0  0  0  0  0  0  0  0  0  0  0  0
  122.4852  102.0947   12.9719 C   0  0  0  0  0  0  0  0  0  0  0  0
  121.1153  102.6796   13.2117 C   0  0  0  0  0  0  0  0  0  0  0  0
  120.4503  103.0510   11.9114 C   0  0  0  0  0  0  0  0  0  0  0  0
  121.3180  103.9377   11.0509 C   0  0  0  0  0  0  0  0  0  0  0  0
  122.6901  103.2728   10.8697 C   0  0  0  0  0  0  0  0  0  0  0  0
  121.3001  103.8547   14.0711 O   0  0  0  0  0  0  0  0  0  0  0  0
  119.1936  103.7399   12.1952 O   0  0  0  0  0  0  0  0  0  0  0  0
  120.6986  104.1080    9.7669 O   0  0  0  0  0  0  0  0  0  0  0  0
  123.3069  103.0242   12.1594 O   0  0  0  0  0  0  0  0  0  0  0  0
  121.8834  104.4907   13.6282 H   0  0  0  0  0  0  0  0  0  0  0  0
  119.3761  104.5559   12.6870 H   0  0  0  0  0  0  0  0  0  0  0  0
  120.5908  103.2424    9.3426 H   0  0  0  0  0  0  0  0  0  0  0  0
  123.6692  104.0460   10.0242 C   0  0  0  0  0  0  0  0  0  0  0  0
  123.3478  103.9396    8.6369 O   0  0  0  0  0  0  0  0  0  0  0  0
  123.3875  103.0090    8.3662 H   0  0  0  0  0  0  0  0  0  0  0  0
  2  3  1  0  0  0
  2  9  1  0  0  0
  2 10  1  0  0  0
  3  4  1  0  0  0
  3  7  1  0  0  0
  4  5  1  0  0  0
  4  8  1  0  0  0
  5  6  1  0  0  0
  5  1  1  0  0  0
  6 14  1  0  0  0
  6  9  1  0  0  0
 14 15  1  0  0  0
  1 17  1  0  0  0
 17 18  1  0  0  0
 17 25  1  0  0  0
 18 19  1  0  0  0
 18 22  1  0  0  0
 19 20  1  0  0  0
 19 23  1  0  0  0
 20 21  1  0  0  0
 20 24  1  0  0  0
 21 29  1  0  0  0
 21 25  1  0  0  0
 29 30  1  0  0  0
  7 11  1  0  0  0
  8 12  1  0  0  0
 15 16  1  0  0  0
 22 26  1  0  0  0
 23 27  1  0  0  0
 24 28  1  0  0  0
 30 31  1  0  0  0
 10 13  1  0  0  0
M  END
> <minimizedAffinity>
-9.35554

$$$$
4PFT_MAB_A_601


 31 32  0  0  0  0  0  0  0  0999 V2000
  124.6831  103.4954   11.7846 O   0  0  0  0  0  0  0  0  0  0  0  0
  123.5597  106.1041    9.2650 C   0  0  0  0  0  0  0  0  0  0  0  0
  122.2931  105.7243    9.9506 C   0  0  0  0  0  0  0  0  0  0  0  0
  122.9990  105.0931   11.1123 C   0  0  0  0  0  0  0  0  0  0  0  0
  123.9116  103.9677   10.6348 C   0  0  0  0  0  0  0  0  0  0  0  0
  124.8887  104.4366    9.5685 C   0  0  0  0  0  0  0  0  0  0  0  0
  121.5571  104.6985    9.2713 O   0  0  0  0  0  0  0  0  0  0  0  0
  122.0493  104.6430   12.0826 O   0  0  0  0  0  0  0  0  0  0  0  0
  124.1577  105.0448    8.4352 O   0  0  0  0  0  0  0  0  0  0  0  0
  123.8023  107.3820    8.9240 O   0  0  0  0  0  0  0  0  0  0  0  0
  122.1392  103.9413    9.1017 H   0  0  0  0  0  0  0  0  0  0  0  0
  121.4687  103.9771   11.6821 H   0  0  0  0  0  0  0  0  0  0  0  0
  123.3097  107.6005    8.1175 H   0  0  0  0  0  0  0  0  0  0  0  0
  125.8219  103.3671    9.0444 C   0  0  0  0  0  0  0  0  0  0  0  0
  126.8492  103.0856   10.0002 O   0  0  0  0  0  0  0  0  0  0  0  0
  127.3647  103.8901   10.1673 H   0  0  0  0  0  0  0  0  0  0  0  0
  124.2512  102.2103   12.1719 C   0  0  0  0  0  0  0  0  0  0  0  0
  125.4047  101.4190   12.7374 C   0  0  0  0  0  0  0  0  0  0  0  0
  124.9370  100.0930   13.2796 C   0  0  0  0  0  0  0  0  0  0  0  0
  123.7970  100.2386   14.2589 C   0  0  0  0  0  0  0  0  0  0  0  0
  122.6781  101.0631   13.6066 C   0  0  0  0  0  0  0  0  0  0  0  0
  126.0087  102.2431   13.7908 O   0  0  0  0  0  0  0  0  0  0  0  0
  126.0550   99.4244   13.9413 O   0  0  0  0  0  0  0  0  0  0  0  0
  123.2931   98.9380   14.5991 O   0  0  0  0  0  0  0  0  0  0  0  0
  123.1812  102.3582   13.1880 O   0  0  0  0  0  0  0  0  0  0  0  0
  125.3449  102.4356   14.4713 H   0  0  0  0  0  0  0  0  0  0  0  0
  126.3610   99.9661   14.6855 H   0  0  0  0  0  0  0  0  0  0  0  0
  122.9815   98.4917   13.7962 H   0  0  0  0  0  0  0  0  0  0  0  0
  121.4638  101.2899   14.4701 C   0  0  0  0  0  0  0  0  0  0  0  0
  120.4071  101.8947   13.7239 O   0  0  0  0  0  0  0  0  0  0  0  0
  120.7006  102.7558   13.3874 H   0  0  0  0  0  0  0  0  0  0  0  0
  2  3  1  0  0  0
  2  9  1  0  0  0
  2 10  1  0  0  0
  3  4  1  0  0  0
  3  7  1  0  0  0
  4  5  1  0  0  0
  4  8  1  0  0  0
  5  6  1  0  0  0
  5  1  1  0  0  0
  6 14  1  0  0  0
  6  9  1  0  0  0
 14 15  1  0  0  0
  1 17  1  0  0  0
 17 18  1  0  0  0
 17 25  1  0  0  0
 18 19  1  0  0  0
 18 22  1  0  0  0
 19 20  1  0  0  0
 19 23  1  0  0  0
 20 21  1  0  0  0
 20 24  1  0  0  0
 21 29  1  0  0  0
 21 25  1  0  0  0
 29 30  1  0  0  0
  7 11  1  0  0  0
  8 12  1  0  0  0
 15 16  1  0  0  0
 22 26  1  0  0  0
 23 27  1  0  0  0
 24 28  1  0  0  0
 30 31  1  0  0  0
 10 13  1  0  0  0
M  END
> <minimizedAffinity>
-8.97953

$$$$
4PFT_MAB_A_601


 31 32  0  0  0  0  0  0  0  0999 V2000
  122.9869  103.3575   12.5281 O   0  0  0  0  0  0  0  0  0  0  0  0
  120.2741  105.3829   10.8093 C   0  0  0  0  0  0  0  0  0  0  0  0
  119.5042  104.4485   11.6770 C   0  0  0  0  0  0  0  0  0  0  0  0
  120.6902  104.1100   12.5284 C   0  0  0  0  0  0  0  0  0  0  0  0
  121.8104  103.5241   11.6746 C   0  0  0  0  0  0  0  0  0  0  0  0
  122.1880  104.4383   10.5199 C   0  0  0  0  0  0  0  0  0  0  0  0
  119.0873  103.2524   11.0056 O   0  0  0  0  0  0  0  0  0  0  0  0
  120.3031  103.2308   13.5883 O   0  0  0  0  0  0  0  0  0  0  0  0
  120.9969  104.7435    9.6972 O   0  0  0  0  0  0  0  0  0  0  0  0
  119.8814  106.6593   10.6524 O   0  0  0  0  0  0  0  0  0  0  0  0
  119.8542  102.8344   10.5837 H   0  0  0  0  0  0  0  0  0  0  0  0
  119.9534  102.4071   13.2137 H   0  0  0  0  0  0  0  0  0  0  0  0
  119.1439  106.6957   10.0234 H   0  0  0  0  0  0  0  0  0  0  0  0
  123.2912  103.9146    9.6266 C   0  0  0  0  0  0  0  0  0  0  0  0
  124.5739  104.2662   10.1550 O   0  0  0  0  0  0  0  0  0  0  0  0
  124.6494  105.2319   10.2049 H   0  0  0  0  0  0  0  0  0  0  0  0
  123.2455  101.9889   12.7473 C   0  0  0  0  0  0  0  0  0  0  0  0
  124.7236  101.7104   12.6305 C   0  0  0  0  0  0  0  0  0  0  0  0
  125.0353  100.2811   12.9927 C   0  0  0  0  0  0  0  0  0  0  0  0
  124.4753   99.8908   14.3394 C   0  0  0  0  0  0  0  0  0  0  0  0
  122.9758  100.2187   14.3730 C   0  0  0  0  0  0  0  0  0  0  0  0
  125.4048  102.6493   13.5294 O   0  0  0  0  0  0  0  0  0  0  0  0
  126.4843  100.0943   13.0036 O   0  0  0  0  0  0  0  0  0  0  0  0
  124.6588   98.4812   14.5406 O   0  0  0  0  0  0  0  0  0  0  0  0
  122.7588  101.6273   14.1007 O   0  0  0  0  0  0  0  0  0  0  0  0
  125.0902  102.5139   14.4370 H   0  0  0  0  0  0  0  0  0  0  0  0
  126.8796  100.6712   13.6757 H   0  0  0  0  0  0  0  0  0  0  0  0
  124.1999   97.9921   13.8398 H   0  0  0  0  0  0  0  0  0  0  0  0
  122.2750   99.8783   15.6631 C   0  0  0  0  0  0  0  0  0  0  0  0
  121.7823   98.5381   15.6434 O   0  0  0  0  0  0  0  0  0  0  0  0
  121.1435   98.4390   14.9202 H   0  0  0  0  0  0  0  0  0  0  0  0
  2  3  1  0  0  0
  2  9  1  0  0  0
  2 10  1  0  0  0
  3  4  1  0  0  0
  3  7  1  0  0  0
  4  5  1  0  0  0
  4  8  1  0  0  0
  5  6  1  0  0  0
  5  1  1  0  0  0
  6 14  1  0  0  0
  6  9  1  0  0  0
 14 15  1  0  0  0
  1 17  1  0  0  0
 17 18  1  0  0  0
 17 25  1  0  0  0
 18 19  1  0  0  0
 18 22  1  0  0  0
 19 20  1  0  0  0
 19 23  1  0  0  0
 20 21  1  0  0  0
 20 24  1  0  0  0
 21 29  1  0  0  0
 21 25  1  0  0  0
 29 30  1  0  0  0
  7 11  1  0  0  0
  8 12  1  0  0  0
 15 16  1  0  0  0
 22 26  1  0  0  0
 23 27  1  0  0  0
 24 28  1  0  0  0
 30 31  1  0  0  0
 10 13  1  0  0  0
M  END
> <minimizedAffinity>
-8.96714

$$$$
4PFT_MAB_A_601


 31 32  0  0  0  0  0  0  0  0999 V2000
  124.1454  100.0175   13.7618 O   0  0  0  0  0  0  0  0  0  0  0  0
  124.6349   97.7354   16.7565 C   0  0  0  0  0  0  0  0  0  0  0  0
  123.1587   97.9293   16.7131 C   0  0  0  0  0  0  0  0  0  0  0  0
  123.1698   98.4293   15.3002 C   0  0  0  0  0  0  0  0  0  0  0  0
  124.0513   99.6684   15.1795 C   0  0  0  0  0  0  0  0  0  0  0  0
  125.4580   99.4232   15.7017 C   0  0  0  0  0  0  0  0  0  0  0  0
  122.6938   98.9934   17.5539 O   0  0  0  0  0  0  0  0  0  0  0  0
  121.8335   98.6717   14.8512 O   0  0  0  0  0  0  0  0  0  0  0  0
  125.4091   98.9402   17.0992 O   0  0  0  0  0  0  0  0  0  0  0  0
  125.1639   96.5389   17.0673 O   0  0  0  0  0  0  0  0  0  0  0  0
  123.1895   99.8030   17.3546 H   0  0  0  0  0  0  0  0  0  0  0  0
  121.4226   99.3499   15.4098 H   0  0  0  0  0  0  0  0  0  0  0  0
  125.1267   96.4085   18.0278 H   0  0  0  0  0  0  0  0  0  0  0  0
  126.3861  100.6153   15.6176 C   0  0  0  0  0  0  0  0  0  0  0  0
  127.0086  100.6765   14.3304 O   0  0  0  0  0  0  0  0  0  0  0  0
  127.5277   99.8703   14.1836 H   0  0  0  0  0  0  0  0  0  0  0  0
  123.6987  101.3380   13.5500 C   0  0  0  0  0  0  0  0  0  0  0  0
  124.5736  102.0296   12.5339 C   0  0  0  0  0  0  0  0  0  0  0  0
  124.0335  103.3950   12.1948 C   0  0  0  0  0  0  0  0  0  0  0  0
  122.5820  103.3561   11.7810 C   0  0  0  0  0  0  0  0  0  0  0  0
  121.7717  102.6277   12.8627 C   0  0  0  0  0  0  0  0  0  0  0  0
  124.6155  101.1633   11.3501 O   0  0  0  0  0  0  0  0  0  0  0  0
  124.8262  103.9682   11.1096 O   0  0  0  0  0  0  0  0  0  0  0  0
  122.0909  104.6980   11.6414 O   0  0  0  0  0  0  0  0  0  0  0  0
  122.2951  101.2908   13.0738 O   0  0  0  0  0  0  0  0  0  0  0  0
  123.7155  101.0341   11.0121 H   0  0  0  0  0  0  0  0  0  0  0  0
  124.7497  103.4071   10.3221 H   0  0  0  0  0  0  0  0  0  0  0  0
  122.1789  105.1641   12.4875 H   0  0  0  0  0  0  0  0  0  0  0  0
  120.2943  102.5135   12.5875 C   0  0  0  0  0  0  0  0  0  0  0  0
  119.6076  103.7095   12.9581 O   0  0  0  0  0  0  0  0  0  0  0  0
  119.7241  103.8682   13.9079 H   0  0  0  0  0  0  0  0  0  0  0  0
  2  3  1  0  0  0
  2  9  1  0  0  0
  2 10  1  0  0  0
  3  4  1  0  0  0
  3  7  1  0  0  0
  4  5  1  0  0  0
  4  8  1  0  0  0
  5  6  1  0  0  0
  5  1  1  0  0  0
  6 14  1  0  0  0
  6  9  1  0  0  0
 14 15  1  0  0  0
  1 17  1  0  0  0
 17 18  1  0  0  0
 17 25  1  0  0  0
 18 19  1  0  0  0
 18 22  1  0  0  0
 19 20  1  0  0  0
 19 23  1  0  0  0
 20 21  1  0  0  0
 20 24  1  0  0  0
 21 29  1  0  0  0
 21 25  1  0  0  0
 29 30  1  0  0  0
  7 11  1  0  0  0
  8 12  1  0  0  0
 15 16  1  0  0  0
 22 26  1  0  0  0
 23 27  1  0  0  0
 24 28  1  0  0  0
 30 31  1  0  0  0
 10 13  1  0  0  0
M  END
> <minimizedAffinity>
-8.48751

$$$$
4PFT_MAB_A_601


 31 32  0  0  0  0  0  0  0  0999 V2000
  122.1057  101.6693   12.9602 O   0  0  0  0  0  0  0  0  0  0  0  0
  121.4125  104.5804   10.6234 C   0  0  0  0  0  0  0  0  0  0  0  0
  122.8263  104.2259   10.3167 C   0  0  0  0  0  0  0  0  0  0  0  0
  122.7282  102.8764   10.9611 C   0  0  0  0  0  0  0  0  0  0  0  0
  122.3340  103.0130   12.4284 C   0  0  0  0  0  0  0  0  0  0  0  0
  121.0553  103.8164   12.6052 C   0  0  0  0  0  0  0  0  0  0  0  0
  123.7848  104.9975   11.0525 O   0  0  0  0  0  0  0  0  0  0  0  0
  123.9550  102.1595   10.7963 O   0  0  0  0  0  0  0  0  0  0  0  0
  121.1913  105.1435   11.9658 O   0  0  0  0  0  0  0  0  0  0  0  0
  120.5638  104.9387    9.6438 O   0  0  0  0  0  0  0  0  0  0  0  0
  123.5784  104.9519   11.9992 H   0  0  0  0  0  0  0  0  0  0  0  0
  124.6752  102.6485   11.2242 H   0  0  0  0  0  0  0  0  0  0  0  0
  120.7316  105.8602    9.3916 H   0  0  0  0  0  0  0  0  0  0  0  0
  120.6087  103.9965   14.0396 C   0  0  0  0  0  0  0  0  0  0  0  0
  119.3153  104.6071   14.0893 O   0  0  0  0  0  0  0  0  0  0  0  0
  119.3530  105.4791   13.6660 H   0  0  0  0  0  0  0  0  0  0  0  0
  123.1909  101.2686   13.7662 C   0  0  0  0  0  0  0  0  0  0  0  0
  122.7112  100.3749   14.8831 C   0  0  0  0  0  0  0  0  0  0  0  0
  123.8711   99.8287   15.6751 C   0  0  0  0  0  0  0  0  0  0  0  0
  124.9051   99.1612   14.8005 C   0  0  0  0  0  0  0  0  0  0  0  0
  125.3255  100.1342   13.6896 C   0  0  0  0  0  0  0  0  0  0  0  0
  121.9355   99.2962   14.2600 O   0  0  0  0  0  0  0  0  0  0  0  0
  123.3726   98.8622   16.6508 O   0  0  0  0  0  0  0  0  0  0  0  0
  126.0521   98.8214   15.5944 O   0  0  0  0  0  0  0  0  0  0  0  0
  124.1703  100.5495   12.9159 O   0  0  0  0  0  0  0  0  0  0  0  0
  122.4987   98.8114   13.6365 H   0  0  0  0  0  0  0  0  0  0  0  0
  122.9473   98.1242   16.1867 H   0  0  0  0  0  0  0  0  0  0  0  0
  126.4240   99.6268   15.9865 H   0  0  0  0  0  0  0  0  0  0  0  0
  126.3628   99.6041   12.7334 C   0  0  0  0  0  0  0  0  0  0  0  0
  126.3692  100.3496   11.5154 O   0  0  0  0  0  0  0  0  0  0  0  0
  125.5019  100.2768   11.0872 H   0  0  0  0  0  0  0  0  0  0  0  0
  2  3  1  0  0  0
  2  9  1  0  0  0
  2 10  1  0  0  0
  3  4  1  0  0  0
  3  7  1  0  0  0
  4  5  1  0  0  0
  4  8  1  0  0  0
  5  6  1  0  0  0
  5  1  1  0  0  0
  6 14  1  0  0  0
  6  9  1  0  0  0
 14 15  1  0  0  0
  1 17  1  0  0  0
 17 18  1  0  0  0
 17 25  1  0  0  0
 18 19  1  0  0  0
 18 22  1  0  0  0
 19 20  1  0  0  0
 19 23  1  0  0  0
 20 21  1  0  0  0
 20 24  1  0  0  0
 21 29  1  0  0  0
 21 25  1  0  0  0
 29 30  1  0  0  0
  7 11  1  0  0  0
  8 12  1  0  0  0
 15 16  1  0  0  0
 22 26  1  0  0  0
 23 27  1  0  0  0
 24 28  1  0  0  0
 30 31  1  0  0  0
 10 13  1  0  0  0
M  END
> <minimizedAffinity>
-8.44102

$$$$
4PFT_MAB_A_601


 31 32  0  0  0  0  0  0  0  0999 V2000
  123.2290  104.7260   11.1585 O   0  0  0  0  0  0  0  0  0  0  0  0
  125.7836  103.8881    8.4776 C   0  0  0  0  0  0  0  0  0  0  0  0
  124.7061  104.5807    7.7174 C   0  0  0  0  0  0  0  0  0  0  0  0
  124.0915  105.1786    8.9467 C   0  0  0  0  0  0  0  0  0  0  0  0
  123.6776  104.0825    9.9236 C   0  0  0  0  0  0  0  0  0  0  0  0
  124.8323  103.1542   10.2651 C   0  0  0  0  0  0  0  0  0  0  0  0
  123.7481  103.6871    7.1352 O   0  0  0  0  0  0  0  0  0  0  0  0
  122.9954  106.0253    8.5894 O   0  0  0  0  0  0  0  0  0  0  0  0
  125.4077  102.5763    9.0309 O   0  0  0  0  0  0  0  0  0  0  0  0
  127.0788  104.0985    8.1837 O   0  0  0  0  0  0  0  0  0  0  0  0
  123.4069  103.0890    7.8184 H   0  0  0  0  0  0  0  0  0  0  0  0
  122.3170  105.5017    8.1350 H   0  0  0  0  0  0  0  0  0  0  0  0
  127.3184  103.5878    7.3946 H   0  0  0  0  0  0  0  0  0  0  0  0
  124.4896  102.0375   11.2268 C   0  0  0  0  0  0  0  0  0  0  0  0
  125.6628  101.2932   11.5698 O   0  0  0  0  0  0  0  0  0  0  0  0
  126.0444  100.9034   10.7677 H   0  0  0  0  0  0  0  0  0  0  0  0
  121.8248  104.6572   11.2667 C   0  0  0  0  0  0  0  0  0  0  0  0
  121.4303  104.1062   12.6146 C   0  0  0  0  0  0  0  0  0  0  0  0
  119.9354  104.1500   12.8006 C   0  0  0  0  0  0  0  0  0  0  0  0
  119.3608  105.5222   12.5431 C   0  0  0  0  0  0  0  0  0  0  0  0
  119.8210  106.0072   11.1610 C   0  0  0  0  0  0  0  0  0  0  0  0
  122.1175  104.9206   13.6237 O   0  0  0  0  0  0  0  0  0  0  0  0
  119.6099  103.7423   14.1653 O   0  0  0  0  0  0  0  0  0  0  0  0
  117.9271  105.4502   12.5690 O   0  0  0  0  0  0  0  0  0  0  0  0
  121.2700  106.0205   11.0852 O   0  0  0  0  0  0  0  0  0  0  0  0
  121.8490  105.8478   13.5284 H   0  0  0  0  0  0  0  0  0  0  0  0
  120.0124  104.3628   14.7928 H   0  0  0  0  0  0  0  0  0  0  0  0
  117.6220  104.8329   11.8859 H   0  0  0  0  0  0  0  0  0  0  0  0
  119.3192  107.3711   10.7616 C   0  0  0  0  0  0  0  0  0  0  0  0
  117.8959  107.3829   10.6470 O   0  0  0  0  0  0  0  0  0  0  0  0
  117.6212  106.7508    9.9644 H   0  0  0  0  0  0  0  0  0  0  0  0
  2  3  1  0  0  0
  2  9  1  0  0  0
  2 10  1  0  0  0
  3  4  1  0  0  0
  3  7  1  0  0  0
  4  5  1  0  0  0
  4  8  1  0  0  0
  5  6  1  0  0  0
  5  1  1  0  0  0
  6 14  1  0  0  0
  6  9  1  0  0  0
 14 15  1  0  0  0
  1 17  1  0  0  0
 17 18  1  0  0  0
 17 25  1  0  0  0
 18 19  1  0  0  0
 18 22  1  0  0  0
 19 20  1  0  0  0
 19 23  1  0  0  0
 20 21  1  0  0  0
 20 24  1  0  0  0
 21 29  1  0  0  0
 21 25  1  0  0  0
 29 30  1  0  0  0
  7 11  1  0  0  0
  8 12  1  0  0  0
 15 16  1  0  0  0
 22 26  1  0  0  0
 23 27  1  0  0  0
 24 28  1  0  0  0
 30 31  1  0  0  0
 10 13  1  0  0  0
M  END
> <minimizedAffinity>
-8.37576

$$$$
