5NVV_9BT_C_301


 38 40  0  0  0  0  0  0  0  0999 V2000
   12.6319   54.1329   89.7975 C   0  0  0  0  0  0  0  0  0  0  0  0
   13.9638   54.4710   89.0858 C   0  0  0  0  0  0  0  0  0  0  0  0
   14.8252   55.1809   90.1138 C   0  0  0  0  0  0  0  0  0  0  0  0
   14.5381   56.5826   90.0937 O   0  0  0  0  0  0  0  0  0  0  0  0
   14.4084   54.5293   91.4405 C   0  0  0  0  0  0  0  0  0  0  0  0
   12.9634   54.1481   91.2660 N   0  0  0  0  0  0  0  0  0  0  0  0
   12.0044   53.8819   92.1820 C   0  0  0  0  0  0  0  0  0  0  0  0
   10.8435   53.6342   91.8689 O   0  0  0  0  0  0  0  0  0  0  0  0
   13.5905   56.7208   90.2479 H   0  0  0  0  0  0  0  0  0  0  0  0
   11.3122   52.9337   88.2902 N   0  0  0  0  0  0  0  0  0  0  0  0
   12.1800   52.8837   89.3125 C   0  0  0  0  0  0  0  0  0  0  0  0
   12.6263   51.8246   89.7412 O   0  0  0  0  0  0  0  0  0  0  0  0
   11.0055   53.8181   87.9852 H   0  0  0  0  0  0  0  0  0  0  0  0
   10.7885   51.7341   87.5932 C   0  0  0  0  0  0  0  0  0  0  0  0
   13.0378   51.1897   84.0173 C   0  0  0  0  0  0  0  0  0  0  0  0
   12.7558   52.4573   84.5504 C   0  0  0  0  0  0  0  0  0  0  0  0
   12.0128   52.5979   85.7233 C   0  0  0  0  0  0  0  0  0  0  0  0
   12.5402   50.0872   84.7049 C   0  0  0  0  0  0  0  0  0  0  0  0
   11.7899   50.2286   85.8890 C   0  0  0  0  0  0  0  0  0  0  0  0
   11.5171   51.4957   86.4183 C   0  0  0  0  0  0  0  0  0  0  0  0
   15.7489   52.5410   83.4982 C   0  0  0  0  0  0  0  0  0  0  0  0
   14.9633   51.5686   82.6043 C   0  0  0  0  0  0  0  0  0  0  0  0
   15.4848   51.2205   81.4094 N   0  0  0  0  0  0  0  0  0  0  0  0
   14.7453   50.3786   80.6877 C   0  0  0  0  0  0  0  0  0  0  0  0
   13.3856   50.0274   81.5491 S   0  0  0  0  0  0  0  0  0  0  0  0
   13.7679   51.0260   82.8928 C   0  0  0  0  0  0  0  0  0  0  0  0
   12.3891   53.9402   93.6829 C   0  0  0  0  0  0  0  0  0  0  0  0
   12.7218   52.5490   94.2797 C   0  0  0  0  0  0  0  0  0  0  0  0
   13.3764   51.5754   93.2505 C   0  0  0  0  0  0  0  0  0  0  0  0
   11.3977   51.9178   94.7810 C   0  0  0  0  0  0  0  0  0  0  0  0
   13.6860   52.6809   95.4844 C   0  0  0  0  0  0  0  0  0  0  0  0
   11.2005   54.4857   94.3343 N   0  0  0  0  0  0  0  0  0  0  0  0
   11.0833   55.6926   94.8819 C   0  0  0  0  0  0  0  0  0  0  0  0
   11.9963   56.5076   95.0241 O   0  0  0  0  0  0  0  0  0  0  0  0
   10.4081   53.9026   94.3717 H   0  0  0  0  0  0  0  0  0  0  0  0
    9.6830   55.9214   95.4475 C   0  0  0  0  0  0  0  0  0  0  0  0
    8.8361   55.0840   94.6660 O   0  0  0  0  0  0  0  0  0  0  0  0
    8.9188   55.3239   93.7298 H   0  0  0  0  0  0  0  0  0  0  0  0
 23 24  2  0  0  0
 23 22  1  0  0  0
 24 25  1  0  0  0
 21 22  1  0  0  0
 22 26  2  0  0  0
 25 26  1  0  0  0
 26 15  1  0  0  0
 15 16  2  0  0  0
 15 18  1  0  0  0
 16 17  1  0  0  0
 18 19  2  0  0  0
 17 20  2  0  0  0
 19 20  1  0  0  0
 20 14  1  0  0  0
 14 10  1  0  0  0
 10 11  1  0  0  0
  2  1  1  0  0  0
  2  3  1  0  0  0
 11 12  2  0  0  0
 11  1  1  0  0  0
  1  6  1  0  0  0
  3  4  1  0  0  0
  3  5  1  0  0  0
  6  5  1  0  0  0
  6  7  1  0  0  0
  8  7  2  0  0  0
  7 27  1  0  0  0
 31 28  1  0  0  0
 27 28  1  0  0  0
 27 32  1  0  0  0
 29 28  1  0  0  0
 28 30  1  0  0  0
 32 33  1  0  0  0
 33 34  2  0  0  0
 33 36  1  0  0  0
 36 37  1  0  0  0
 10 13  1  0  0  0
  4  9  1  0  0  0
 32 35  1  0  0  0
 37 38  1  0  0  0
M  END
> <minimizedAffinity>
-8.94624

$$$$
5NVV_9BT_C_301


 38 40  0  0  0  0  0  0  0  0999 V2000
    9.9742   51.1475   88.4944 C   0  0  0  0  0  0  0  0  0  0  0  0
    8.4649   50.8218   88.5984 C   0  0  0  0  0  0  0  0  0  0  0  0
    8.1947   50.5283   90.0625 C   0  0  0  0  0  0  0  0  0  0  0  0
    8.4415   49.1438   90.3270 O   0  0  0  0  0  0  0  0  0  0  0  0
    9.1884   51.4387   90.7988 C   0  0  0  0  0  0  0  0  0  0  0  0
   10.3776   51.5599   89.8849 N   0  0  0  0  0  0  0  0  0  0  0  0
   11.6553   51.9209   90.1430 C   0  0  0  0  0  0  0  0  0  0  0  0
   12.5290   51.9174   89.2805 O   0  0  0  0  0  0  0  0  0  0  0  0
    9.3495   48.9220   90.0679 H   0  0  0  0  0  0  0  0  0  0  0  0
   11.1994   52.0110   86.7042 N   0  0  0  0  0  0  0  0  0  0  0  0
   10.1394   52.1538   87.5145 C   0  0  0  0  0  0  0  0  0  0  0  0
    9.3129   53.0469   87.3602 O   0  0  0  0  0  0  0  0  0  0  0  0
   11.8160   51.2627   86.8748 H   0  0  0  0  0  0  0  0  0  0  0  0
   11.4960   52.9149   85.5666 C   0  0  0  0  0  0  0  0  0  0  0  0
   12.6220   50.6101   82.1662 C   0  0  0  0  0  0  0  0  0  0  0  0
   13.4990   50.8691   83.2313 C   0  0  0  0  0  0  0  0  0  0  0  0
   13.0964   51.6313   84.3288 C   0  0  0  0  0  0  0  0  0  0  0  0
   11.3426   51.1502   82.2522 C   0  0  0  0  0  0  0  0  0  0  0  0
   10.9356   51.9199   83.3598 C   0  0  0  0  0  0  0  0  0  0  0  0
   11.8137   52.1696   84.4214 C   0  0  0  0  0  0  0  0  0  0  0  0
   15.0762   51.1717   80.4036 C   0  0  0  0  0  0  0  0  0  0  0  0
   14.0455   50.0366   80.2975 C   0  0  0  0  0  0  0  0  0  0  0  0
   14.1827   49.1261   79.3111 N   0  0  0  0  0  0  0  0  0  0  0  0
   13.2492   48.1752   79.2788 C   0  0  0  0  0  0  0  0  0  0  0  0
   12.2021   48.4462   80.5215 S   0  0  0  0  0  0  0  0  0  0  0  0
   12.9820   49.8624   81.1006 C   0  0  0  0  0  0  0  0  0  0  0  0
   12.0274   52.3077   91.5977 C   0  0  0  0  0  0  0  0  0  0  0  0
   12.6380   53.7278   91.7120 C   0  0  0  0  0  0  0  0  0  0  0  0
   14.1968   53.7261   91.7869 C   0  0  0  0  0  0  0  0  0  0  0  0
   12.0838   54.3810   93.0040 C   0  0  0  0  0  0  0  0  0  0  0  0
   12.2240   54.6058   90.5053 C   0  0  0  0  0  0  0  0  0  0  0  0
   13.0206   51.3101   91.9886 N   0  0  0  0  0  0  0  0  0  0  0  0
   12.9110   50.4340   92.9838 C   0  0  0  0  0  0  0  0  0  0  0  0
   11.9959   50.3950   93.8079 O   0  0  0  0  0  0  0  0  0  0  0  0
   13.8531   51.2836   91.4637 H   0  0  0  0  0  0  0  0  0  0  0  0
   14.1399   49.5316   93.0784 C   0  0  0  0  0  0  0  0  0  0  0  0
   15.1976   50.3009   92.5138 O   0  0  0  0  0  0  0  0  0  0  0  0
   14.9682   50.5477   91.6042 H   0  0  0  0  0  0  0  0  0  0  0  0
 23 24  2  0  0  0
 23 22  1  0  0  0
 24 25  1  0  0  0
 21 22  1  0  0  0
 22 26  2  0  0  0
 25 26  1  0  0  0
 26 15  1  0  0  0
 15 16  2  0  0  0
 15 18  1  0  0  0
 16 17  1  0  0  0
 18 19  2  0  0  0
 17 20  2  0  0  0
 19 20  1  0  0  0
 20 14  1  0  0  0
 14 10  1  0  0  0
 10 11  1  0  0  0
  2  1  1  0  0  0
  2  3  1  0  0  0
 11 12  2  0  0  0
 11  1  1  0  0  0
  1  6  1  0  0  0
  3  4  1  0  0  0
  3  5  1  0  0  0
  6  5  1  0  0  0
  6  7  1  0  0  0
  8  7  2  0  0  0
  7 27  1  0  0  0
 31 28  1  0  0  0
 27 28  1  0  0  0
 27 32  1  0  0  0
 29 28  1  0  0  0
 28 30  1  0  0  0
 32 33  1  0  0  0
 33 34  2  0  0  0
 33 36  1  0  0  0
 36 37  1  0  0  0
 10 13  1  0  0  0
  4  9  1  0  0  0
 32 35  1  0  0  0
 37 38  1  0  0  0
M  END
> <minimizedAffinity>
-6.59279

$$$$
5NVV_9BT_C_301


 38 40  0  0  0  0  0  0  0  0999 V2000
   12.3590   53.7564   90.0120 C   0  0  0  0  0  0  0  0  0  0  0  0
   13.7460   54.1585   89.4558 C   0  0  0  0  0  0  0  0  0  0  0  0
   14.5703   54.5994   90.6512 C   0  0  0  0  0  0  0  0  0  0  0  0
   14.3443   55.9900   90.9022 O   0  0  0  0  0  0  0  0  0  0  0  0
   14.0439   53.7178   91.7931 C   0  0  0  0  0  0  0  0  0  0  0  0
   12.5979   53.4580   91.4681 N   0  0  0  0  0  0  0  0  0  0  0  0
   11.5729   53.0651   92.2585 C   0  0  0  0  0  0  0  0  0  0  0  0
   10.4246   52.9485   91.8403 O   0  0  0  0  0  0  0  0  0  0  0  0
   13.3955   56.1452   91.0309 H   0  0  0  0  0  0  0  0  0  0  0  0
   10.8997   52.9249   88.3901 N   0  0  0  0  0  0  0  0  0  0  0  0
   11.8863   52.6565   89.2591 C   0  0  0  0  0  0  0  0  0  0  0  0
   12.4107   51.5501   89.3331 O   0  0  0  0  0  0  0  0  0  0  0  0
   10.5337   53.8387   88.3718 H   0  0  0  0  0  0  0  0  0  0  0  0
   10.3285   51.9249   87.4558 C   0  0  0  0  0  0  0  0  0  0  0  0
   12.8517   51.2681   84.0876 C   0  0  0  0  0  0  0  0  0  0  0  0
   12.4219   50.2287   84.9275 C   0  0  0  0  0  0  0  0  0  0  0  0
   11.5972   50.4815   86.0246 C   0  0  0  0  0  0  0  0  0  0  0  0
   12.4251   52.5548   84.4012 C   0  0  0  0  0  0  0  0  0  0  0  0
   11.5927   52.8106   85.5087 C   0  0  0  0  0  0  0  0  0  0  0  0
   11.1630   51.7684   86.3391 C   0  0  0  0  0  0  0  0  0  0  0  0
   15.5844   52.5988   83.6325 C   0  0  0  0  0  0  0  0  0  0  0  0
   14.8445   51.5782   82.7533 C   0  0  0  0  0  0  0  0  0  0  0  0
   15.4247   51.1693   81.6057 N   0  0  0  0  0  0  0  0  0  0  0  0
   14.7222   50.2883   80.8938 C   0  0  0  0  0  0  0  0  0  0  0  0
   13.3218   49.9785   81.7044 S   0  0  0  0  0  0  0  0  0  0  0  0
   13.6366   51.0478   83.0107 C   0  0  0  0  0  0  0  0  0  0  0  0
   11.8647   52.7995   93.7580 C   0  0  0  0  0  0  0  0  0  0  0  0
   11.9725   54.0990   94.5959 C   0  0  0  0  0  0  0  0  0  0  0  0
   13.2498   54.9366   94.2759 C   0  0  0  0  0  0  0  0  0  0  0  0
   12.0093   53.6977   96.0928 C   0  0  0  0  0  0  0  0  0  0  0  0
   10.7409   55.0089   94.3649 C   0  0  0  0  0  0  0  0  0  0  0  0
   13.1511   52.1068   93.7532 N   0  0  0  0  0  0  0  0  0  0  0  0
   13.3584   50.8236   94.0371 C   0  0  0  0  0  0  0  0  0  0  0  0
   12.5096   50.0354   94.4569 O   0  0  0  0  0  0  0  0  0  0  0  0
   13.9425   52.6423   93.5164 H   0  0  0  0  0  0  0  0  0  0  0  0
   14.8330   50.4480   93.9042 C   0  0  0  0  0  0  0  0  0  0  0  0
   14.8296   49.2196   93.1827 O   0  0  0  0  0  0  0  0  0  0  0  0
   14.3052   48.5622   93.6661 H   0  0  0  0  0  0  0  0  0  0  0  0
 23 24  2  0  0  0
 23 22  1  0  0  0
 24 25  1  0  0  0
 21 22  1  0  0  0
 22 26  2  0  0  0
 25 26  1  0  0  0
 26 15  1  0  0  0
 15 16  2  0  0  0
 15 18  1  0  0  0
 16 17  1  0  0  0
 18 19  2  0  0  0
 17 20  2  0  0  0
 19 20  1  0  0  0
 20 14  1  0  0  0
 14 10  1  0  0  0
 10 11  1  0  0  0
  2  1  1  0  0  0
  2  3  1  0  0  0
 11 12  2  0  0  0
 11  1  1  0  0  0
  1  6  1  0  0  0
  3  4  1  0  0  0
  3  5  1  0  0  0
  6  5  1  0  0  0
  6  7  1  0  0  0
  8  7  2  0  0  0
  7 27  1  0  0  0
 31 28  1  0  0  0
 27 28  1  0  0  0
 27 32  1  0  0  0
 29 28  1  0  0  0
 28 30  1  0  0  0
 32 33  1  0  0  0
 33 34  2  0  0  0
 33 36  1  0  0  0
 36 37  1  0  0  0
 10 13  1  0  0  0
  4  9  1  0  0  0
 32 35  1  0  0  0
 37 38  1  0  0  0
M  END
> <minimizedAffinity>
-6.48620

$$$$
5NVV_9BT_C_301


 38 40  0  0  0  0  0  0  0  0999 V2000
   10.1384   51.6582   88.2479 C   0  0  0  0  0  0  0  0  0  0  0  0
    9.4486   50.6566   89.2049 C   0  0  0  0  0  0  0  0  0  0  0  0
    8.7064   49.6700   88.3225 C   0  0  0  0  0  0  0  0  0  0  0  0
    7.4023   50.1793   88.0262 O   0  0  0  0  0  0  0  0  0  0  0  0
    9.5861   49.5814   87.0669 C   0  0  0  0  0  0  0  0  0  0  0  0
   10.2335   50.9330   86.9320 N   0  0  0  0  0  0  0  0  0  0  0  0
   10.8012   51.5365   85.8629 C   0  0  0  0  0  0  0  0  0  0  0  0
   11.2435   52.6808   85.9090 O   0  0  0  0  0  0  0  0  0  0  0  0
    7.4826   51.0541   87.6149 H   0  0  0  0  0  0  0  0  0  0  0  0
   11.5332   53.3102   89.1293 N   0  0  0  0  0  0  0  0  0  0  0  0
   11.3857   52.0150   88.8109 C   0  0  0  0  0  0  0  0  0  0  0  0
   12.2396   51.1747   89.0742 O   0  0  0  0  0  0  0  0  0  0  0  0
   10.8021   53.9295   88.9031 H   0  0  0  0  0  0  0  0  0  0  0  0
   12.7337   53.8628   89.8021 C   0  0  0  0  0  0  0  0  0  0  0  0
   12.1983   54.3456   94.0001 C   0  0  0  0  0  0  0  0  0  0  0  0
   13.4182   54.6058   93.3561 C   0  0  0  0  0  0  0  0  0  0  0  0
   13.5581   54.4337   91.9783 C   0  0  0  0  0  0  0  0  0  0  0  0
   11.1435   53.9052   93.2069 C   0  0  0  0  0  0  0  0  0  0  0  0
   11.2841   53.7311   91.8159 C   0  0  0  0  0  0  0  0  0  0  0  0
   12.5022   53.9980   91.1791 C   0  0  0  0  0  0  0  0  0  0  0  0
   11.5264   57.0354   95.3264 C   0  0  0  0  0  0  0  0  0  0  0  0
   11.7232   55.6565   95.9759 C   0  0  0  0  0  0  0  0  0  0  0  0
   11.5967   55.5461   97.3147 N   0  0  0  0  0  0  0  0  0  0  0  0
   11.7863   54.3218   97.8065 C   0  0  0  0  0  0  0  0  0  0  0  0
   12.1169   53.3121   96.5474 S   0  0  0  0  0  0  0  0  0  0  0  0
   12.0327   54.5195   95.3292 C   0  0  0  0  0  0  0  0  0  0  0  0
   10.8474   50.7590   84.5222 C   0  0  0  0  0  0  0  0  0  0  0  0
   12.2848   50.5872   83.9682 C   0  0  0  0  0  0  0  0  0  0  0  0
   13.1814   51.8478   84.1743 C   0  0  0  0  0  0  0  0  0  0  0  0
   12.1776   50.3028   82.4481 C   0  0  0  0  0  0  0  0  0  0  0  0
   12.9960   49.3868   84.6401 C   0  0  0  0  0  0  0  0  0  0  0  0
   10.0601   51.5812   83.6064 N   0  0  0  0  0  0  0  0  0  0  0  0
    8.7465   51.5070   83.4087 C   0  0  0  0  0  0  0  0  0  0  0  0
    7.9957   50.6561   83.8886 O   0  0  0  0  0  0  0  0  0  0  0  0
   10.5500   52.2568   83.0840 H   0  0  0  0  0  0  0  0  0  0  0  0
    8.2699   52.5434   82.3929 C   0  0  0  0  0  0  0  0  0  0  0  0
    8.9223   53.7508   82.7749 O   0  0  0  0  0  0  0  0  0  0  0  0
    8.6870   53.9698   83.6901 H   0  0  0  0  0  0  0  0  0  0  0  0
 23 24  2  0  0  0
 23 22  1  0  0  0
 24 25  1  0  0  0
 21 22  1  0  0  0
 22 26  2  0  0  0
 25 26  1  0  0  0
 26 15  1  0  0  0
 15 16  2  0  0  0
 15 18  1  0  0  0
 16 17  1  0  0  0
 18 19  2  0  0  0
 17 20  2  0  0  0
 19 20  1  0  0  0
 20 14  1  0  0  0
 14 10  1  0  0  0
 10 11  1  0  0  0
  2  1  1  0  0  0
  2  3  1  0  0  0
 11 12  2  0  0  0
 11  1  1  0  0  0
  1  6  1  0  0  0
  3  4  1  0  0  0
  3  5  1  0  0  0
  6  5  1  0  0  0
  6  7  1  0  0  0
  8  7  2  0  0  0
  7 27  1  0  0  0
 31 28  1  0  0  0
 27 28  1  0  0  0
 27 32  1  0  0  0
 29 28  1  0  0  0
 28 30  1  0  0  0
 32 33  1  0  0  0
 33 34  2  0  0  0
 33 36  1  0  0  0
 36 37  1  0  0  0
 10 13  1  0  0  0
  4  9  1  0  0  0
 32 35  1  0  0  0
 37 38  1  0  0  0
M  END
> <minimizedAffinity>
-6.36065

$$$$
5NVV_9BT_C_301


 38 40  0  0  0  0  0  0  0  0999 V2000
   11.0996   52.6391   89.3618 C   0  0  0  0  0  0  0  0  0  0  0  0
    9.7896   53.2666   88.8282 C   0  0  0  0  0  0  0  0  0  0  0  0
    8.8066   53.2423   89.9841 C   0  0  0  0  0  0  0  0  0  0  0  0
    8.1181   51.9879   90.0012 O   0  0  0  0  0  0  0  0  0  0  0  0
    9.7023   53.4214   91.2187 C   0  0  0  0  0  0  0  0  0  0  0  0
   11.0180   52.7868   90.8578 N   0  0  0  0  0  0  0  0  0  0  0  0
   12.0249   52.3373   91.6412 C   0  0  0  0  0  0  0  0  0  0  0  0
   13.0232   51.7892   91.1827 O   0  0  0  0  0  0  0  0  0  0  0  0
    8.7635   51.2655   90.0506 H   0  0  0  0  0  0  0  0  0  0  0  0
   12.3733   53.0868   87.4568 N   0  0  0  0  0  0  0  0  0  0  0  0
   12.1867   53.3192   88.7652 C   0  0  0  0  0  0  0  0  0  0  0  0
   12.8557   54.1382   89.3867 O   0  0  0  0  0  0  0  0  0  0  0  0
   11.7908   52.4273   87.0153 H   0  0  0  0  0  0  0  0  0  0  0  0
   13.4060   53.7659   86.6374 C   0  0  0  0  0  0  0  0  0  0  0  0
   14.1766   51.7434   82.9688 C   0  0  0  0  0  0  0  0  0  0  0  0
   15.0554   52.6953   83.5093 C   0  0  0  0  0  0  0  0  0  0  0  0
   14.7688   53.3407   84.7130 C   0  0  0  0  0  0  0  0  0  0  0  0
   13.0110   51.4793   83.6813 C   0  0  0  0  0  0  0  0  0  0  0  0
   12.7211   52.1307   84.8964 C   0  0  0  0  0  0  0  0  0  0  0  0
   13.6048   53.0750   85.4328 C   0  0  0  0  0  0  0  0  0  0  0  0
   12.5763   49.3315   81.9356 C   0  0  0  0  0  0  0  0  0  0  0  0
   13.7750   50.0470   81.2929 C   0  0  0  0  0  0  0  0  0  0  0  0
   14.2377   49.5997   80.1069 N   0  0  0  0  0  0  0  0  0  0  0  0
   15.2817   50.2658   79.6140 C   0  0  0  0  0  0  0  0  0  0  0  0
   15.6614   51.4722   80.6697 S   0  0  0  0  0  0  0  0  0  0  0  0
   14.4383   51.0933   81.8141 C   0  0  0  0  0  0  0  0  0  0  0  0
   11.8791   52.4852   93.1778 C   0  0  0  0  0  0  0  0  0  0  0  0
   12.5243   53.7829   93.7275 C   0  0  0  0  0  0  0  0  0  0  0  0
   13.4157   54.5215   92.6808 C   0  0  0  0  0  0  0  0  0  0  0  0
   13.4078   53.3972   94.9415 C   0  0  0  0  0  0  0  0  0  0  0  0
   11.4397   54.7775   94.2099 C   0  0  0  0  0  0  0  0  0  0  0  0
   12.5777   51.3202   93.7155 N   0  0  0  0  0  0  0  0  0  0  0  0
   12.0165   50.2495   94.2712 C   0  0  0  0  0  0  0  0  0  0  0  0
   10.8173   50.1160   94.5207 O   0  0  0  0  0  0  0  0  0  0  0  0
   13.5607   51.3282   93.6613 H   0  0  0  0  0  0  0  0  0  0  0  0
   13.0629   49.2211   94.6962 C   0  0  0  0  0  0  0  0  0  0  0  0
   12.7070   48.8735   96.0311 O   0  0  0  0  0  0  0  0  0  0  0  0
   12.7026   49.6714   96.5827 H   0  0  0  0  0  0  0  0  0  0  0  0
 23 24  2  0  0  0
 23 22  1  0  0  0
 24 25  1  0  0  0
 21 22  1  0  0  0
 22 26  2  0  0  0
 25 26  1  0  0  0
 26 15  1  0  0  0
 15 16  2  0  0  0
 15 18  1  0  0  0
 16 17  1  0  0  0
 18 19  2  0  0  0
 17 20  2  0  0  0
 19 20  1  0  0  0
 20 14  1  0  0  0
 14 10  1  0  0  0
 10 11  1  0  0  0
  2  1  1  0  0  0
  2  3  1  0  0  0
 11 12  2  0  0  0
 11  1  1  0  0  0
  1  6  1  0  0  0
  3  4  1  0  0  0
  3  5  1  0  0  0
  6  5  1  0  0  0
  6  7  1  0  0  0
  8  7  2  0  0  0
  7 27  1  0  0  0
 31 28  1  0  0  0
 27 28  1  0  0  0
 27 32  1  0  0  0
 29 28  1  0  0  0
 28 30  1  0  0  0
 32 33  1  0  0  0
 33 34  2  0  0  0
 33 36  1  0  0  0
 36 37  1  0  0  0
 10 13  1  0  0  0
  4  9  1  0  0  0
 32 35  1  0  0  0
 37 38  1  0  0  0
M  END
> <minimizedAffinity>
-6.35512

$$$$
5NVV_9BT_C_301


 38 40  0  0  0  0  0  0  0  0999 V2000
    8.4532   52.2249   83.4485 C   0  0  0  0  0  0  0  0  0  0  0  0
    7.2215   52.1542   82.5143 C   0  0  0  0  0  0  0  0  0  0  0  0
    7.7089   51.5363   81.2168 C   0  0  0  0  0  0  0  0  0  0  0  0
    8.2154   52.5628   80.3580 O   0  0  0  0  0  0  0  0  0  0  0  0
    8.8146   50.5730   81.6728 C   0  0  0  0  0  0  0  0  0  0  0  0
    9.4101   51.1974   82.9054 N   0  0  0  0  0  0  0  0  0  0  0  0
   10.6053   50.9971   83.5062 C   0  0  0  0  0  0  0  0  0  0  0  0
   10.9641   51.6365   84.4909 O   0  0  0  0  0  0  0  0  0  0  0  0
    8.9142   53.0536   80.8181 H   0  0  0  0  0  0  0  0  0  0  0  0
    8.4527   52.8387   85.7013 N   0  0  0  0  0  0  0  0  0  0  0  0
    8.0161   51.9764   84.7704 C   0  0  0  0  0  0  0  0  0  0  0  0
    7.2156   51.0838   85.0289 O   0  0  0  0  0  0  0  0  0  0  0  0
    9.0831   53.5417   85.4228 H   0  0  0  0  0  0  0  0  0  0  0  0
    8.0405   52.7942   87.1251 C   0  0  0  0  0  0  0  0  0  0  0  0
   11.3464   53.2804   89.7665 C   0  0  0  0  0  0  0  0  0  0  0  0
   10.1740   54.0456   89.8698 C   0  0  0  0  0  0  0  0  0  0  0  0
    9.1113   53.8609   88.9844 C   0  0  0  0  0  0  0  0  0  0  0  0
   11.4018   52.3394   88.7431 C   0  0  0  0  0  0  0  0  0  0  0  0
   10.3292   52.1526   87.8489 C   0  0  0  0  0  0  0  0  0  0  0  0
    9.1605   52.9153   87.9611 C   0  0  0  0  0  0  0  0  0  0  0  0
   13.8857   54.8972   89.1477 C   0  0  0  0  0  0  0  0  0  0  0  0
   13.5119   54.1307   90.4262 C   0  0  0  0  0  0  0  0  0  0  0  0
   14.3805   54.1289   91.4588 N   0  0  0  0  0  0  0  0  0  0  0  0
   13.9908   53.4394   92.5308 C   0  0  0  0  0  0  0  0  0  0  0  0
   12.5046   52.8025   92.2148 S   0  0  0  0  0  0  0  0  0  0  0  0
   12.3823   53.4287   90.6204 C   0  0  0  0  0  0  0  0  0  0  0  0
   11.5680   49.9493   82.8903 C   0  0  0  0  0  0  0  0  0  0  0  0
   11.5001   48.5716   83.5974 C   0  0  0  0  0  0  0  0  0  0  0  0
   10.1092   48.2745   84.2398 C   0  0  0  0  0  0  0  0  0  0  0  0
   12.5723   48.5586   84.7169 C   0  0  0  0  0  0  0  0  0  0  0  0
   11.8167   47.4254   82.6054 C   0  0  0  0  0  0  0  0  0  0  0  0
   12.8946   50.5335   83.0733 N   0  0  0  0  0  0  0  0  0  0  0  0
   13.8396   50.6543   82.1446 C   0  0  0  0  0  0  0  0  0  0  0  0
   13.7872   50.1928   81.0034 O   0  0  0  0  0  0  0  0  0  0  0  0
   13.1105   50.8711   83.9726 H   0  0  0  0  0  0  0  0  0  0  0  0
   15.0888   51.3381   82.6971 C   0  0  0  0  0  0  0  0  0  0  0  0
   15.9393   51.5053   81.5666 O   0  0  0  0  0  0  0  0  0  0  0  0
   16.1175   50.6404   81.1652 H   0  0  0  0  0  0  0  0  0  0  0  0
 23 24  2  0  0  0
 23 22  1  0  0  0
 24 25  1  0  0  0
 21 22  1  0  0  0
 22 26  2  0  0  0
 25 26  1  0  0  0
 26 15  1  0  0  0
 15 16  2  0  0  0
 15 18  1  0  0  0
 16 17  1  0  0  0
 18 19  2  0  0  0
 17 20  2  0  0  0
 19 20  1  0  0  0
 20 14  1  0  0  0
 14 10  1  0  0  0
 10 11  1  0  0  0
  2  1  1  0  0  0
  2  3  1  0  0  0
 11 12  2  0  0  0
 11  1  1  0  0  0
  1  6  1  0  0  0
  3  4  1  0  0  0
  3  5  1  0  0  0
  6  5  1  0  0  0
  6  7  1  0  0  0
  8  7  2  0  0  0
  7 27  1  0  0  0
 31 28  1  0  0  0
 27 28  1  0  0  0
 27 32  1  0  0  0
 29 28  1  0  0  0
 28 30  1  0  0  0
 32 33  1  0  0  0
 33 34  2  0  0  0
 33 36  1  0  0  0
 36 37  1  0  0  0
 10 13  1  0  0  0
  4  9  1  0  0  0
 32 35  1  0  0  0
 37 38  1  0  0  0
M  END
> <minimizedAffinity>
-6.18014

$$$$
5NVV_9BT_C_301


 38 40  0  0  0  0  0  0  0  0999 V2000
   12.2975   49.1784   89.7291 C   0  0  0  0  0  0  0  0  0  0  0  0
   12.2404   47.8806   90.5701 C   0  0  0  0  0  0  0  0  0  0  0  0
   12.4908   48.2961   92.0080 C   0  0  0  0  0  0  0  0  0  0  0  0
   13.8989   48.3172   92.2622 O   0  0  0  0  0  0  0  0  0  0  0  0
   11.8728   49.6997   92.0872 C   0  0  0  0  0  0  0  0  0  0  0  0
   12.0301   50.2877   90.7112 N   0  0  0  0  0  0  0  0  0  0  0  0
   12.0037   51.5739   90.2932 C   0  0  0  0  0  0  0  0  0  0  0  0
   12.2045   51.8920   89.1245 O   0  0  0  0  0  0  0  0  0  0  0  0
   14.3333   48.9074   91.6267 H   0  0  0  0  0  0  0  0  0  0  0  0
   11.6643   49.6738   87.5370 N   0  0  0  0  0  0  0  0  0  0  0  0
   11.3418   49.0718   88.6922 C   0  0  0  0  0  0  0  0  0  0  0  0
   10.3272   48.3938   88.8162 O   0  0  0  0  0  0  0  0  0  0  0  0
   12.5016   50.1904   87.5013 H   0  0  0  0  0  0  0  0  0  0  0  0
   10.8326   49.6060   86.3112 C   0  0  0  0  0  0  0  0  0  0  0  0
   13.2806   50.3277   82.9010 C   0  0  0  0  0  0  0  0  0  0  0  0
   12.9144   51.3416   83.8001 C   0  0  0  0  0  0  0  0  0  0  0  0
   12.1080   51.0690   84.9060 C   0  0  0  0  0  0  0  0  0  0  0  0
   12.8003   49.0475   83.1585 C   0  0  0  0  0  0  0  0  0  0  0  0
   11.9860   48.7717   84.2747 C   0  0  0  0  0  0  0  0  0  0  0  0
   11.6292   49.7866   85.1707 C   0  0  0  0  0  0  0  0  0  0  0  0
   15.7939   52.0954   82.9608 C   0  0  0  0  0  0  0  0  0  0  0  0
   15.1909   51.3068   81.7876 C   0  0  0  0  0  0  0  0  0  0  0  0
   15.8056   51.3581   80.5875 N   0  0  0  0  0  0  0  0  0  0  0  0
   15.2226   50.6540   79.6175 C   0  0  0  0  0  0  0  0  0  0  0  0
   13.8911   49.9190   80.2507 S   0  0  0  0  0  0  0  0  0  0  0  0
   14.0727   50.5624   81.8325 C   0  0  0  0  0  0  0  0  0  0  0  0
   11.7546   52.6819   91.3488 C   0  0  0  0  0  0  0  0  0  0  0  0
   10.2501   52.9758   91.5783 C   0  0  0  0  0  0  0  0  0  0  0  0
    9.3588   51.6950   91.5494 C   0  0  0  0  0  0  0  0  0  0  0  0
    9.7754   53.9312   90.4536 C   0  0  0  0  0  0  0  0  0  0  0  0
   10.0258   53.6768   92.9408 C   0  0  0  0  0  0  0  0  0  0  0  0
   12.4082   53.8619   90.7875 N   0  0  0  0  0  0  0  0  0  0  0  0
   13.4396   54.5184   91.3125 C   0  0  0  0  0  0  0  0  0  0  0  0
   13.9423   54.3004   92.4160 O   0  0  0  0  0  0  0  0  0  0  0  0
   12.0503   54.2050   89.9370 H   0  0  0  0  0  0  0  0  0  0  0  0
   13.8695   55.6898   90.4314 C   0  0  0  0  0  0  0  0  0  0  0  0
   15.2927   55.6284   90.4175 O   0  0  0  0  0  0  0  0  0  0  0  0
   15.6277   55.6847   91.3261 H   0  0  0  0  0  0  0  0  0  0  0  0
 23 24  2  0  0  0
 23 22  1  0  0  0
 24 25  1  0  0  0
 21 22  1  0  0  0
 22 26  2  0  0  0
 25 26  1  0  0  0
 26 15  1  0  0  0
 15 16  2  0  0  0
 15 18  1  0  0  0
 16 17  1  0  0  0
 18 19  2  0  0  0
 17 20  2  0  0  0
 19 20  1  0  0  0
 20 14  1  0  0  0
 14 10  1  0  0  0
 10 11  1  0  0  0
  2  1  1  0  0  0
  2  3  1  0  0  0
 11 12  2  0  0  0
 11  1  1  0  0  0
  1  6  1  0  0  0
  3  4  1  0  0  0
  3  5  1  0  0  0
  6  5  1  0  0  0
  6  7  1  0  0  0
  8  7  2  0  0  0
  7 27  1  0  0  0
 31 28  1  0  0  0
 27 28  1  0  0  0
 27 32  1  0  0  0
 29 28  1  0  0  0
 28 30  1  0  0  0
 32 33  1  0  0  0
 33 34  2  0  0  0
 33 36  1  0  0  0
 36 37  1  0  0  0
 10 13  1  0  0  0
  4  9  1  0  0  0
 32 35  1  0  0  0
 37 38  1  0  0  0
M  END
> <minimizedAffinity>
-6.12591

$$$$
5NVV_9BT_C_301


 38 40  0  0  0  0  0  0  0  0999 V2000
   13.8826   50.4132   83.1082 C   0  0  0  0  0  0  0  0  0  0  0  0
   14.8868   51.5902   83.1422 C   0  0  0  0  0  0  0  0  0  0  0  0
   15.3454   51.7972   81.7106 C   0  0  0  0  0  0  0  0  0  0  0  0
   16.4607   50.9435   81.4366 O   0  0  0  0  0  0  0  0  0  0  0  0
   14.1117   51.4127   80.8809 C   0  0  0  0  0  0  0  0  0  0  0  0
   13.3983   50.3590   81.6838 N   0  0  0  0  0  0  0  0  0  0  0  0
   12.4903   49.4289   81.3096 C   0  0  0  0  0  0  0  0  0  0  0  0
   12.0382   48.5966   82.0907 O   0  0  0  0  0  0  0  0  0  0  0  0
   16.2145   50.0225   81.6155 H   0  0  0  0  0  0  0  0  0  0  0  0
   12.3600   51.9137   84.0473 N   0  0  0  0  0  0  0  0  0  0  0  0
   12.8701   50.6726   84.0610 C   0  0  0  0  0  0  0  0  0  0  0  0
   12.4263   49.7903   84.7883 O   0  0  0  0  0  0  0  0  0  0  0  0
   12.7533   52.5700   83.4278 H   0  0  0  0  0  0  0  0  0  0  0  0
   11.2381   52.3541   84.9113 C   0  0  0  0  0  0  0  0  0  0  0  0
   12.5288   53.2789   88.8637 C   0  0  0  0  0  0  0  0  0  0  0  0
   11.3231   52.6116   88.5962 C   0  0  0  0  0  0  0  0  0  0  0  0
   10.9305   52.3275   87.2875 C   0  0  0  0  0  0  0  0  0  0  0  0
   13.3065   53.6469   87.7703 C   0  0  0  0  0  0  0  0  0  0  0  0
   12.9105   53.3606   86.4489 C   0  0  0  0  0  0  0  0  0  0  0  0
   11.7093   52.6896   86.1894 C   0  0  0  0  0  0  0  0  0  0  0  0
   14.4330   55.5736   89.6077 C   0  0  0  0  0  0  0  0  0  0  0  0
   13.7531   54.5427   90.5225 C   0  0  0  0  0  0  0  0  0  0  0  0
   13.9858   54.6005   91.8504 N   0  0  0  0  0  0  0  0  0  0  0  0
   13.3667   53.6719   92.5790 C   0  0  0  0  0  0  0  0  0  0  0  0
   12.4783   52.7318   91.5585 S   0  0  0  0  0  0  0  0  0  0  0  0
   12.9390   53.5513   90.1215 C   0  0  0  0  0  0  0  0  0  0  0  0
   12.0465   49.3949   79.8243 C   0  0  0  0  0  0  0  0  0  0  0  0
   10.5150   49.5509   79.6437 C   0  0  0  0  0  0  0  0  0  0  0  0
    9.6993   48.3513   80.2194 C   0  0  0  0  0  0  0  0  0  0  0  0
   10.2241   49.6600   78.1249 C   0  0  0  0  0  0  0  0  0  0  0  0
   10.0062   50.8416   80.3318 C   0  0  0  0  0  0  0  0  0  0  0  0
   12.4671   48.0761   79.3571 N   0  0  0  0  0  0  0  0  0  0  0  0
   13.6606   47.7564   78.8636 C   0  0  0  0  0  0  0  0  0  0  0  0
   14.5718   48.5490   78.6196 O   0  0  0  0  0  0  0  0  0  0  0  0
   11.8018   47.3525   79.4130 H   0  0  0  0  0  0  0  0  0  0  0  0
   13.7425   46.2747   78.5017 C   0  0  0  0  0  0  0  0  0  0  0  0
   14.5268   46.2356   77.3131 O   0  0  0  0  0  0  0  0  0  0  0  0
   14.1041   46.7779   76.6289 H   0  0  0  0  0  0  0  0  0  0  0  0
 23 24  2  0  0  0
 23 22  1  0  0  0
 24 25  1  0  0  0
 21 22  1  0  0  0
 22 26  2  0  0  0
 25 26  1  0  0  0
 26 15  1  0  0  0
 15 16  2  0  0  0
 15 18  1  0  0  0
 16 17  1  0  0  0
 18 19  2  0  0  0
 17 20  2  0  0  0
 19 20  1  0  0  0
 20 14  1  0  0  0
 14 10  1  0  0  0
 10 11  1  0  0  0
  2  1  1  0  0  0
  2  3  1  0  0  0
 11 12  2  0  0  0
 11  1  1  0  0  0
  1  6  1  0  0  0
  3  4  1  0  0  0
  3  5  1  0  0  0
  6  5  1  0  0  0
  6  7  1  0  0  0
  8  7  2  0  0  0
  7 27  1  0  0  0
 31 28  1  0  0  0
 27 28  1  0  0  0
 27 32  1  0  0  0
 29 28  1  0  0  0
 28 30  1  0  0  0
 32 33  1  0  0  0
 33 34  2  0  0  0
 33 36  1  0  0  0
 36 37  1  0  0  0
 10 13  1  0  0  0
  4  9  1  0  0  0
 32 35  1  0  0  0
 37 38  1  0  0  0
M  END
> <minimizedAffinity>
-6.08000

$$$$
5NVV_9BT_C_301


 38 40  0  0  0  0  0  0  0  0999 V2000
   12.2739   51.2375   89.0176 C   0  0  0  0  0  0  0  0  0  0  0  0
   12.1554   49.7092   89.2301 C   0  0  0  0  0  0  0  0  0  0  0  0
   12.3459   49.4721   90.7168 C   0  0  0  0  0  0  0  0  0  0  0  0
   13.7408   49.3347   91.0051 O   0  0  0  0  0  0  0  0  0  0  0  0
   11.7491   50.7329   91.3591 C   0  0  0  0  0  0  0  0  0  0  0  0
   11.9803   51.8393   90.3659 N   0  0  0  0  0  0  0  0  0  0  0  0
   11.9955   53.1820   90.5289 C   0  0  0  0  0  0  0  0  0  0  0  0
   12.2558   53.9550   89.6113 O   0  0  0  0  0  0  0  0  0  0  0  0
   14.2144   50.1218   90.6935 H   0  0  0  0  0  0  0  0  0  0  0  0
   11.8845   52.3209   86.9863 N   0  0  0  0  0  0  0  0  0  0  0  0
   11.3657   51.6108   87.9999 C   0  0  0  0  0  0  0  0  0  0  0  0
   10.2001   51.2287   88.0024 O   0  0  0  0  0  0  0  0  0  0  0  0
   12.8321   52.5824   87.0406 H   0  0  0  0  0  0  0  0  0  0  0  0
   11.1133   52.7346   85.7891 C   0  0  0  0  0  0  0  0  0  0  0  0
   12.9029   50.9291   82.3715 C   0  0  0  0  0  0  0  0  0  0  0  0
   13.6418   51.3091   83.5030 C   0  0  0  0  0  0  0  0  0  0  0  0
   13.0220   51.9012   84.6043 C   0  0  0  0  0  0  0  0  0  0  0  0
   11.5335   51.1742   82.3962 C   0  0  0  0  0  0  0  0  0  0  0  0
   10.9073   51.7721   83.5077 C   0  0  0  0  0  0  0  0  0  0  0  0
   11.6494   52.1434   84.6354 C   0  0  0  0  0  0  0  0  0  0  0  0
   15.5394   51.8519   81.0897 C   0  0  0  0  0  0  0  0  0  0  0  0
   14.6302   50.6763   80.6981 C   0  0  0  0  0  0  0  0  0  0  0  0
   14.9852   49.9025   79.6512 N   0  0  0  0  0  0  0  0  0  0  0  0
   14.1460   48.9065   79.3677 C   0  0  0  0  0  0  0  0  0  0  0  0
   12.9073   48.9591   80.4525 S   0  0  0  0  0  0  0  0  0  0  0  0
   13.4763   50.3401   81.2997 C   0  0  0  0  0  0  0  0  0  0  0  0
   11.7167   53.7512   91.9440 C   0  0  0  0  0  0  0  0  0  0  0  0
   12.9973   53.8921   92.8057 C   0  0  0  0  0  0  0  0  0  0  0  0
   12.8498   54.9229   93.9681 C   0  0  0  0  0  0  0  0  0  0  0  0
   14.1466   54.3595   91.8763 C   0  0  0  0  0  0  0  0  0  0  0  0
   13.3964   52.5316   93.4287 C   0  0  0  0  0  0  0  0  0  0  0  0
   10.8182   52.7720   92.5509 N   0  0  0  0  0  0  0  0  0  0  0  0
    9.6919   53.0345   93.2087 C   0  0  0  0  0  0  0  0  0  0  0  0
    9.2799   54.1569   93.5065 O   0  0  0  0  0  0  0  0  0  0  0  0
   11.0711   51.8245   92.4648 H   0  0  0  0  0  0  0  0  0  0  0  0
    9.0038   51.7553   93.6812 C   0  0  0  0  0  0  0  0  0  0  0  0
    8.3723   51.2328   92.5160 O   0  0  0  0  0  0  0  0  0  0  0  0
    7.7581   51.8925   92.1577 H   0  0  0  0  0  0  0  0  0  0  0  0
 23 24  2  0  0  0
 23 22  1  0  0  0
 24 25  1  0  0  0
 21 22  1  0  0  0
 22 26  2  0  0  0
 25 26  1  0  0  0
 26 15  1  0  0  0
 15 16  2  0  0  0
 15 18  1  0  0  0
 16 17  1  0  0  0
 18 19  2  0  0  0
 17 20  2  0  0  0
 19 20  1  0  0  0
 20 14  1  0  0  0
 14 10  1  0  0  0
 10 11  1  0  0  0
  2  1  1  0  0  0
  2  3  1  0  0  0
 11 12  2  0  0  0
 11  1  1  0  0  0
  1  6  1  0  0  0
  3  4  1  0  0  0
  3  5  1  0  0  0
  6  5  1  0  0  0
  6  7  1  0  0  0
  8  7  2  0  0  0
  7 27  1  0  0  0
 31 28  1  0  0  0
 27 28  1  0  0  0
 27 32  1  0  0  0
 29 28  1  0  0  0
 28 30  1  0  0  0
 32 33  1  0  0  0
 33 34  2  0  0  0
 33 36  1  0  0  0
 36 37  1  0  0  0
 10 13  1  0  0  0
  4  9  1  0  0  0
 32 35  1  0  0  0
 37 38  1  0  0  0
M  END
> <minimizedAffinity>
-6.05656

$$$$
