4QNB_1B0_A_301


 34 37  0  0  0  0  0  0  0  0999 V2000
   16.2084   24.5165   -1.4760 C   0  0  0  0  0  0  0  0  0  0  0  0
   15.8437   27.1167   -0.4173 O   0  0  0  0  0  0  0  0  0  0  0  0
   15.2073   26.2204    0.0581 C   0  0  0  0  0  0  0  0  0  0  0  0
   15.3395   24.8740   -0.4056 N   0  0  0  0  0  0  0  0  0  0  0  0
   14.8103   24.1681    0.0313 H   0  0  0  0  0  0  0  0  0  0  0  0
   14.1920   26.5242    1.2006 C   0  0  0  0  0  0  0  0  0  0  0  0
   14.8451   26.6153    2.5755 C   0  0  0  0  0  0  0  0  0  0  0  0
   15.1652   27.7627    3.3133 C   0  0  0  0  0  0  0  0  0  0  0  0
   15.0121   29.1286    3.0352 C   0  0  0  0  0  0  0  0  0  0  0  0
   15.4104   30.0676    3.9654 C   0  0  0  0  0  0  0  0  0  0  0  0
   15.9587   29.6624    5.1817 C   0  0  0  0  0  0  0  0  0  0  0  0
   16.1181   28.3202    5.4457 C   0  0  0  0  0  0  0  0  0  0  0  0
   15.6997   27.3655    4.5044 C   0  0  0  0  0  0  0  0  0  0  0  0
   15.7267   25.9667    4.5131 N   0  0  0  0  0  0  0  0  0  0  0  0
   15.1942   25.5177    3.3073 C   0  0  0  0  0  0  0  0  0  0  0  0
   15.2578   23.9999    3.3865 C   0  0  0  0  0  0  0  0  0  0  0  0
   16.0633   25.3992    5.2438 H   0  0  0  0  0  0  0  0  0  0  0  0
   15.6066   25.0505   -2.7591 C   0  0  0  0  0  0  0  0  0  0  0  0
   16.4357   25.5905   -3.8338 N   0  0  0  0  0  0  0  0  0  0  0  0
   15.8046   26.0731   -5.0821 C   0  0  0  0  0  0  0  0  0  0  0  0
   14.4245   25.0026   -2.9021 O   0  0  0  0  0  0  0  0  0  0  0  0
   17.8865   25.6274   -3.6214 C   0  0  0  0  0  0  0  0  0  0  0  0
   18.6972   24.6760   -4.2296 C   0  0  0  0  0  0  0  0  0  0  0  0
   20.0794   24.6944   -4.0014 C   0  0  0  0  0  0  0  0  0  0  0  0
   20.6277   25.6628   -3.1762 C   0  0  0  0  0  0  0  0  0  0  0  0
   19.8140   26.6124   -2.5612 C   0  0  0  0  0  0  0  0  0  0  0  0
   18.4391   26.5995   -2.7805 C   0  0  0  0  0  0  0  0  0  0  0  0
   16.2887   22.9967   -1.6516 C   0  0  0  0  0  0  0  0  0  0  0  0
   17.4406   22.5228   -0.7781 C   0  0  0  0  0  0  0  0  0  0  0  0
   17.1880   22.0137    0.4933 C   0  0  0  0  0  0  0  0  0  0  0  0
   18.2533   21.5579    1.2681 C   0  0  0  0  0  0  0  0  0  0  0  0
   19.5479   21.5929    0.7611 C   0  0  0  0  0  0  0  0  0  0  0  0
   19.7844   22.0894   -0.5201 C   0  0  0  0  0  0  0  0  0  0  0  0
   18.7266   22.5415   -1.2853 C   0  0  0  0  0  0  0  0  0  0  0  0
  2  3  2  0  0  0
  3  4  1  0  0  0
  3  6  1  0  0  0
  4  1  1  0  0  0
  1 18  1  0  0  0
  1 28  1  0  0  0
 18 19  1  0  0  0
 18 21  2  0  0  0
 19 22  1  0  0  0
 19 20  1  0  0  0
 22 23  1  0  0  0
 22 27  2  0  0  0
 23 24  2  0  0  0
 24 25  1  0  0  0
 25 26  2  0  0  0
 26 27  1  0  0  0
 28 29  1  0  0  0
 29 30  1  0  0  0
 29 34  2  0  0  0
 30 31  2  0  0  0
 31 32  1  0  0  0
 32 33  2  0  0  0
 33 34  1  0  0  0
  6  7  1  0  0  0
  7  8  1  0  0  0
  7 15  2  0  0  0
  8  9  1  0  0  0
  8 13  2  0  0  0
  9 10  2  0  0  0
 10 11  1  0  0  0
 11 12  2  0  0  0
 12 13  1  0  0  0
 13 14  1  0  0  0
 14 15  1  0  0  0
 15 16  1  0  0  0
  4  5  1  0  0  0
 14 17  1  0  0  0
M  END
> <minimizedAffinity>
-11.09636

$$$$
4QNB_1B0_A_301


 34 37  0  0  0  0  0  0  0  0999 V2000
   15.9385   25.3623   -1.8242 C   0  0  0  0  0  0  0  0  0  0  0  0
   15.6488   27.5066    0.0013 O   0  0  0  0  0  0  0  0  0  0  0  0
   15.0402   26.4978    0.2160 C   0  0  0  0  0  0  0  0  0  0  0  0
   15.1389   25.3606   -0.6455 N   0  0  0  0  0  0  0  0  0  0  0  0
   14.6356   24.5464   -0.4154 H   0  0  0  0  0  0  0  0  0  0  0  0
   14.0989   26.4205    1.4555 C   0  0  0  0  0  0  0  0  0  0  0  0
   14.8476   26.4791    2.7826 C   0  0  0  0  0  0  0  0  0  0  0  0
   15.2018   27.6078    3.5337 C   0  0  0  0  0  0  0  0  0  0  0  0
   15.0074   28.9789    3.3131 C   0  0  0  0  0  0  0  0  0  0  0  0
   15.4567   29.8945    4.2434 C   0  0  0  0  0  0  0  0  0  0  0  0
   16.0974   29.4603    5.4032 C   0  0  0  0  0  0  0  0  0  0  0  0
   16.2967   28.1134    5.6101 C   0  0  0  0  0  0  0  0  0  0  0  0
   15.8268   27.1821    4.6696 C   0  0  0  0  0  0  0  0  0  0  0  0
   15.8766   25.7845    4.6295 N   0  0  0  0  0  0  0  0  0  0  0  0
   15.2659   25.3650    3.4504 C   0  0  0  0  0  0  0  0  0  0  0  0
   15.3591   23.8469    3.4740 C   0  0  0  0  0  0  0  0  0  0  0  0
   16.2739   25.2000    5.3149 H   0  0  0  0  0  0  0  0  0  0  0  0
   15.0390   25.0234   -2.9945 C   0  0  0  0  0  0  0  0  0  0  0  0
   14.5408   26.0496   -3.9071 N   0  0  0  0  0  0  0  0  0  0  0  0
   13.6889   25.6668   -5.0548 C   0  0  0  0  0  0  0  0  0  0  0  0
   14.7534   23.8827   -3.1876 O   0  0  0  0  0  0  0  0  0  0  0  0
   14.9188   27.4412   -3.6385 C   0  0  0  0  0  0  0  0  0  0  0  0
   14.0895   28.2440   -2.8638 C   0  0  0  0  0  0  0  0  0  0  0  0
   14.4369   29.5815   -2.6333 C   0  0  0  0  0  0  0  0  0  0  0  0
   15.6057   30.0918   -3.1744 C   0  0  0  0  0  0  0  0  0  0  0  0
   16.4335   29.2887   -3.9566 C   0  0  0  0  0  0  0  0  0  0  0  0
   16.0942   27.9592   -4.1928 C   0  0  0  0  0  0  0  0  0  0  0  0
   17.0040   24.2623   -1.7825 C   0  0  0  0  0  0  0  0  0  0  0  0
   18.3063   24.9074   -2.2323 C   0  0  0  0  0  0  0  0  0  0  0  0
   18.4264   26.2947   -2.2535 C   0  0  0  0  0  0  0  0  0  0  0  0
   19.6365   26.8676   -2.6413 C   0  0  0  0  0  0  0  0  0  0  0  0
   20.7142   26.0560   -2.9793 C   0  0  0  0  0  0  0  0  0  0  0  0
   20.5853   24.6684   -2.9372 C   0  0  0  0  0  0  0  0  0  0  0  0
   19.3842   24.1035   -2.5536 C   0  0  0  0  0  0  0  0  0  0  0  0
  2  3  2  0  0  0
  3  4  1  0  0  0
  3  6  1  0  0  0
  4  1  1  0  0  0
  1 18  1  0  0  0
  1 28  1  0  0  0
 18 19  1  0  0  0
 18 21  2  0  0  0
 19 22  1  0  0  0
 19 20  1  0  0  0
 22 23  1  0  0  0
 22 27  2  0  0  0
 23 24  2  0  0  0
 24 25  1  0  0  0
 25 26  2  0  0  0
 26 27  1  0  0  0
 28 29  1  0  0  0
 29 30  1  0  0  0
 29 34  2  0  0  0
 30 31  2  0  0  0
 31 32  1  0  0  0
 32 33  2  0  0  0
 33 34  1  0  0  0
  6  7  1  0  0  0
  7  8  1  0  0  0
  7 15  2  0  0  0
  8  9  1  0  0  0
  8 13  2  0  0  0
  9 10  2  0  0  0
 10 11  1  0  0  0
 11 12  2  0  0  0
 12 13  1  0  0  0
 13 14  1  0  0  0
 14 15  1  0  0  0
 15 16  1  0  0  0
  4  5  1  0  0  0
 14 17  1  0  0  0
M  END
> <minimizedAffinity>
-10.02571

$$$$
4QNB_1B0_A_301


 34 37  0  0  0  0  0  0  0  0999 V2000
   14.3645   26.1783   -1.5072 C   0  0  0  0  0  0  0  0  0  0  0  0
   15.1909   27.6404    0.7719 O   0  0  0  0  0  0  0  0  0  0  0  0
   14.5026   26.6750    0.9409 C   0  0  0  0  0  0  0  0  0  0  0  0
   14.0520   25.8704   -0.1522 N   0  0  0  0  0  0  0  0  0  0  0  0
   13.5055   25.0741    0.0391 H   0  0  0  0  0  0  0  0  0  0  0  0
   14.0666   26.2891    2.3864 C   0  0  0  0  0  0  0  0  0  0  0  0
   15.2269   26.2583    3.3753 C   0  0  0  0  0  0  0  0  0  0  0  0
   15.6919   27.2875    4.2047 C   0  0  0  0  0  0  0  0  0  0  0  0
   15.2740   28.6153    4.3744 C   0  0  0  0  0  0  0  0  0  0  0  0
   15.9157   29.4255    5.2895 C   0  0  0  0  0  0  0  0  0  0  0  0
   16.9734   28.9264    6.0488 C   0  0  0  0  0  0  0  0  0  0  0  0
   17.3881   27.6254    5.8703 C   0  0  0  0  0  0  0  0  0  0  0  0
   16.7255   26.7979    4.9490 C   0  0  0  0  0  0  0  0  0  0  0  0
   16.9195   25.4622    4.5809 N   0  0  0  0  0  0  0  0  0  0  0  0
   15.9819   25.1443    3.6016 C   0  0  0  0  0  0  0  0  0  0  0  0
   16.2528   23.6892    3.2506 C   0  0  0  0  0  0  0  0  0  0  0  0
   17.5999   24.8536    4.9495 H   0  0  0  0  0  0  0  0  0  0  0  0
   13.0641   26.4641   -2.2290 C   0  0  0  0  0  0  0  0  0  0  0  0
   12.9714   27.4735   -3.2810 N   0  0  0  0  0  0  0  0  0  0  0  0
   11.6861   27.6966   -3.9792 C   0  0  0  0  0  0  0  0  0  0  0  0
   12.0980   25.8269   -1.9452 O   0  0  0  0  0  0  0  0  0  0  0  0
   14.1838   28.2329   -3.6045 C   0  0  0  0  0  0  0  0  0  0  0  0
   14.9181   27.9095   -4.7397 C   0  0  0  0  0  0  0  0  0  0  0  0
   16.0923   28.6160   -5.0309 C   0  0  0  0  0  0  0  0  0  0  0  0
   16.5096   29.6339   -4.1888 C   0  0  0  0  0  0  0  0  0  0  0  0
   15.7770   29.9535   -3.0472 C   0  0  0  0  0  0  0  0  0  0  0  0
   14.6104   29.2545   -2.7491 C   0  0  0  0  0  0  0  0  0  0  0  0
   14.9883   24.9784   -2.2271 C   0  0  0  0  0  0  0  0  0  0  0  0
   16.3779   25.4149   -2.6663 C   0  0  0  0  0  0  0  0  0  0  0  0
   16.9937   24.7941   -3.7502 C   0  0  0  0  0  0  0  0  0  0  0  0
   18.2552   25.2265   -4.1560 C   0  0  0  0  0  0  0  0  0  0  0  0
   18.8750   26.2818   -3.4955 C   0  0  0  0  0  0  0  0  0  0  0  0
   18.2397   26.9056   -2.4226 C   0  0  0  0  0  0  0  0  0  0  0  0
   16.9899   26.4740   -2.0220 C   0  0  0  0  0  0  0  0  0  0  0  0
  2  3  2  0  0  0
  3  4  1  0  0  0
  3  6  1  0  0  0
  4  1  1  0  0  0
  1 18  1  0  0  0
  1 28  1  0  0  0
 18 19  1  0  0  0
 18 21  2  0  0  0
 19 22  1  0  0  0
 19 20  1  0  0  0
 22 23  1  0  0  0
 22 27  2  0  0  0
 23 24  2  0  0  0
 24 25  1  0  0  0
 25 26  2  0  0  0
 26 27  1  0  0  0
 28 29  1  0  0  0
 29 30  1  0  0  0
 29 34  2  0  0  0
 30 31  2  0  0  0
 31 32  1  0  0  0
 32 33  2  0  0  0
 33 34  1  0  0  0
  6  7  1  0  0  0
  7  8  1  0  0  0
  7 15  2  0  0  0
  8  9  1  0  0  0
  8 13  2  0  0  0
  9 10  2  0  0  0
 10 11  1  0  0  0
 11 12  2  0  0  0
 12 13  1  0  0  0
 13 14  1  0  0  0
 14 15  1  0  0  0
 15 16  1  0  0  0
  4  5  1  0  0  0
 14 17  1  0  0  0
M  END
> <minimizedAffinity>
-9.62931

$$$$
4QNB_1B0_A_301


 34 37  0  0  0  0  0  0  0  0999 V2000
   14.7601   26.4659   -1.8779 C   0  0  0  0  0  0  0  0  0  0  0  0
   15.1137   27.7885    0.6001 O   0  0  0  0  0  0  0  0  0  0  0  0
   14.5527   26.7304    0.6012 C   0  0  0  0  0  0  0  0  0  0  0  0
   14.3441   25.9871   -0.6027 N   0  0  0  0  0  0  0  0  0  0  0  0
   13.8965   25.1119   -0.5479 H   0  0  0  0  0  0  0  0  0  0  0  0
   14.0160   26.1497    1.9440 C   0  0  0  0  0  0  0  0  0  0  0  0
   15.0299   26.2293    3.0802 C   0  0  0  0  0  0  0  0  0  0  0  0
   15.3635   27.3348    3.8739 C   0  0  0  0  0  0  0  0  0  0  0  0
   14.9095   28.6616    3.8711 C   0  0  0  0  0  0  0  0  0  0  0  0
   15.4092   29.5603    4.7920 C   0  0  0  0  0  0  0  0  0  0  0  0
   16.3589   29.1519    5.7277 C   0  0  0  0  0  0  0  0  0  0  0  0
   16.8107   27.8510    5.7192 C   0  0  0  0  0  0  0  0  0  0  0  0
   16.2913   26.9340    4.7908 C   0  0  0  0  0  0  0  0  0  0  0  0
   16.5510   25.5774    4.5680 N   0  0  0  0  0  0  0  0  0  0  0  0
   15.7607   25.1566    3.5014 C   0  0  0  0  0  0  0  0  0  0  0  0
   16.0958   23.6844    3.3163 C   0  0  0  0  0  0  0  0  0  0  0  0
   17.1819   25.0182    5.0764 H   0  0  0  0  0  0  0  0  0  0  0  0
   14.3651   25.4325   -2.9121 C   0  0  0  0  0  0  0  0  0  0  0  0
   13.4926   25.7609   -4.0368 N   0  0  0  0  0  0  0  0  0  0  0  0
   13.1584   24.7251   -5.0393 C   0  0  0  0  0  0  0  0  0  0  0  0
   14.8020   24.3280   -2.8158 O   0  0  0  0  0  0  0  0  0  0  0  0
   12.9797   27.1323   -4.1227 C   0  0  0  0  0  0  0  0  0  0  0  0
   12.0699   27.5891   -3.1761 C   0  0  0  0  0  0  0  0  0  0  0  0
   11.5580   28.8893   -3.2770 C   0  0  0  0  0  0  0  0  0  0  0  0
   11.9658   29.7107   -4.3154 C   0  0  0  0  0  0  0  0  0  0  0  0
   12.8727   29.2503   -5.2681 C   0  0  0  0  0  0  0  0  0  0  0  0
   13.3842   27.9586   -5.1767 C   0  0  0  0  0  0  0  0  0  0  0  0
   16.2851   26.5836   -1.9644 C   0  0  0  0  0  0  0  0  0  0  0  0
   16.5760   27.9023   -2.6652 C   0  0  0  0  0  0  0  0  0  0  0  0
   17.7455   28.0553   -3.4055 C   0  0  0  0  0  0  0  0  0  0  0  0
   17.9816   29.2609   -4.0641 C   0  0  0  0  0  0  0  0  0  0  0  0
   17.0440   30.2860   -3.9969 C   0  0  0  0  0  0  0  0  0  0  0  0
   15.8694   30.1130   -3.2660 C   0  0  0  0  0  0  0  0  0  0  0  0
   15.6388   28.9173   -2.6134 C   0  0  0  0  0  0  0  0  0  0  0  0
  2  3  2  0  0  0
  3  4  1  0  0  0
  3  6  1  0  0  0
  4  1  1  0  0  0
  1 18  1  0  0  0
  1 28  1  0  0  0
 18 19  1  0  0  0
 18 21  2  0  0  0
 19 22  1  0  0  0
 19 20  1  0  0  0
 22 23  1  0  0  0
 22 27  2  0  0  0
 23 24  2  0  0  0
 24 25  1  0  0  0
 25 26  2  0  0  0
 26 27  1  0  0  0
 28 29  1  0  0  0
 29 30  1  0  0  0
 29 34  2  0  0  0
 30 31  2  0  0  0
 31 32  1  0  0  0
 32 33  2  0  0  0
 33 34  1  0  0  0
  6  7  1  0  0  0
  7  8  1  0  0  0
  7 15  2  0  0  0
  8  9  1  0  0  0
  8 13  2  0  0  0
  9 10  2  0  0  0
 10 11  1  0  0  0
 11 12  2  0  0  0
 12 13  1  0  0  0
 13 14  1  0  0  0
 14 15  1  0  0  0
 15 16  1  0  0  0
  4  5  1  0  0  0
 14 17  1  0  0  0
M  END
> <minimizedAffinity>
-8.60023

$$$$
4QNB_1B0_A_301


 34 37  0  0  0  0  0  0  0  0999 V2000
   14.6187   26.2841   -1.6828 C   0  0  0  0  0  0  0  0  0  0  0  0
   15.1961   27.7372    0.6772 O   0  0  0  0  0  0  0  0  0  0  0  0
   14.5533   26.7318    0.7777 C   0  0  0  0  0  0  0  0  0  0  0  0
   14.2281   25.9287   -0.3601 N   0  0  0  0  0  0  0  0  0  0  0  0
   13.7154   25.0993   -0.2240 H   0  0  0  0  0  0  0  0  0  0  0  0
   14.0377   26.2896    2.1802 C   0  0  0  0  0  0  0  0  0  0  0  0
   15.1206   26.3157    3.2535 C   0  0  0  0  0  0  0  0  0  0  0  0
   15.5150   27.3862    4.0669 C   0  0  0  0  0  0  0  0  0  0  0  0
   15.0765   28.7160    4.1435 C   0  0  0  0  0  0  0  0  0  0  0  0
   15.6422   29.5736    5.0656 C   0  0  0  0  0  0  0  0  0  0  0  0
   16.6432   29.1204    5.9240 C   0  0  0  0  0  0  0  0  0  0  0  0
   17.0790   27.8169    5.8373 C   0  0  0  0  0  0  0  0  0  0  0  0
   16.4930   26.9416    4.9083 C   0  0  0  0  0  0  0  0  0  0  0  0
   16.7232   25.5926    4.6177 N   0  0  0  0  0  0  0  0  0  0  0  0
   15.8639   25.2209    3.5868 C   0  0  0  0  0  0  0  0  0  0  0  0
   16.1703   23.7541    3.3246 C   0  0  0  0  0  0  0  0  0  0  0  0
   17.3780   25.0083    5.0639 H   0  0  0  0  0  0  0  0  0  0  0  0
   15.8956   25.5365   -2.0054 C   0  0  0  0  0  0  0  0  0  0  0  0
   16.2254   25.1247   -3.3677 N   0  0  0  0  0  0  0  0  0  0  0  0
   17.4993   24.4227   -3.6391 C   0  0  0  0  0  0  0  0  0  0  0  0
   16.6624   25.3028   -1.1236 O   0  0  0  0  0  0  0  0  0  0  0  0
   15.2583   25.4354   -4.4258 C   0  0  0  0  0  0  0  0  0  0  0  0
   15.5442   26.4333   -5.3503 C   0  0  0  0  0  0  0  0  0  0  0  0
   14.6064   26.7496   -6.3419 C   0  0  0  0  0  0  0  0  0  0  0  0
   13.4045   26.0625   -6.3964 C   0  0  0  0  0  0  0  0  0  0  0  0
   13.1152   25.0669   -5.4653 C   0  0  0  0  0  0  0  0  0  0  0  0
   14.0406   24.7483   -4.4751 C   0  0  0  0  0  0  0  0  0  0  0  0
   14.9673   27.7724   -1.7855 C   0  0  0  0  0  0  0  0  0  0  0  0
   14.0030   28.3714   -2.7984 C   0  0  0  0  0  0  0  0  0  0  0  0
   14.4180   29.4124   -3.6251 C   0  0  0  0  0  0  0  0  0  0  0  0
   13.5297   29.9296   -4.5667 C   0  0  0  0  0  0  0  0  0  0  0  0
   12.2532   29.3911   -4.6887 C   0  0  0  0  0  0  0  0  0  0  0  0
   11.8567   28.3376   -3.8660 C   0  0  0  0  0  0  0  0  0  0  0  0
   12.7390   27.8279   -2.9330 C   0  0  0  0  0  0  0  0  0  0  0  0
  2  3  2  0  0  0
  3  4  1  0  0  0
  3  6  1  0  0  0
  4  1  1  0  0  0
  1 18  1  0  0  0
  1 28  1  0  0  0
 18 19  1  0  0  0
 18 21  2  0  0  0
 19 22  1  0  0  0
 19 20  1  0  0  0
 22 23  1  0  0  0
 22 27  2  0  0  0
 23 24  2  0  0  0
 24 25  1  0  0  0
 25 26  2  0  0  0
 26 27  1  0  0  0
 28 29  1  0  0  0
 29 30  1  0  0  0
 29 34  2  0  0  0
 30 31  2  0  0  0
 31 32  1  0  0  0
 32 33  2  0  0  0
 33 34  1  0  0  0
  6  7  1  0  0  0
  7  8  1  0  0  0
  7 15  2  0  0  0
  8  9  1  0  0  0
  8 13  2  0  0  0
  9 10  2  0  0  0
 10 11  1  0  0  0
 11 12  2  0  0  0
 12 13  1  0  0  0
 13 14  1  0  0  0
 14 15  1  0  0  0
 15 16  1  0  0  0
  4  5  1  0  0  0
 14 17  1  0  0  0
M  END
> <minimizedAffinity>
-8.10393

$$$$
