1LKE_DOG_A_500


 31 35  0  0  0  0  0  0  0  0999 V2000
   11.7310  -24.8286   36.4890 C   0  0  0  0  0  0  0  0  0  0  0  0
   11.8798  -26.3771   36.3935 C   0  0  0  0  0  0  0  0  0  0  0  0
   10.3613  -24.5797   37.2439 C   0  0  0  0  0  0  0  0  0  0  0  0
   10.3906  -23.4137   38.2284 C   0  0  0  0  0  0  0  0  0  0  0  0
    9.2932  -24.3124   36.1541 C   0  0  0  0  0  0  0  0  0  0  0  0
    9.4810  -22.9926   35.5827 O   0  0  0  0  0  0  0  0  0  0  0  0
   10.0625  -25.9427   37.9314 C   0  0  0  0  0  0  0  0  0  0  0  0
   10.5645  -26.9753   36.9064 C   0  0  0  0  0  0  0  0  0  0  0  0
   10.9606  -26.1192   39.0554 O   0  0  0  0  0  0  0  0  0  0  0  0
    8.5951  -26.1044   38.3619 C   0  0  0  0  0  0  0  0  0  0  0  0
    8.3192  -27.5195   38.8760 C   0  0  0  0  0  0  0  0  0  0  0  0
    7.5502  -25.7220   37.2883 C   0  0  0  0  0  0  0  0  0  0  0  0
    7.8880  -24.3230   36.6713 C   0  0  0  0  0  0  0  0  0  0  0  0
    6.1080  -25.8099   37.8576 C   0  0  0  0  0  0  0  0  0  0  0  0
    5.8837  -24.7793   38.9968 C   0  0  0  0  0  0  0  0  0  0  0  0
    5.8260  -27.2519   38.3785 C   0  0  0  0  0  0  0  0  0  0  0  0
    6.8998  -27.7008   39.3935 C   0  0  0  0  0  0  0  0  0  0  0  0
    5.7614  -28.3021   37.2489 C   0  0  0  0  0  0  0  0  0  0  0  0
    4.7643  -27.8993   36.1607 C   0  0  0  0  0  0  0  0  0  0  0  0
    3.4510  -27.9936   36.7115 O   0  0  0  0  0  0  0  0  0  0  0  0
    5.0320  -26.5207   35.6342 C   0  0  0  0  0  0  0  0  0  0  0  0
    5.0501  -25.5118   36.7632 C   0  0  0  0  0  0  0  0  0  0  0  0
    9.3513  -22.3210   36.2705 H   0  0  0  0  0  0  0  0  0  0  0  0
   11.8772  -26.0123   38.7568 H   0  0  0  0  0  0  0  0  0  0  0  0
    3.3732  -27.3906   37.4672 H   0  0  0  0  0  0  0  0  0  0  0  0
   15.1707  -21.5887   37.5463 O   0  0  0  0  0  0  0  0  0  0  0  0
   14.4809  -22.5645   37.5330 C   0  0  0  0  0  0  0  0  0  0  0  0
   13.3337  -22.8635   36.7126 C   0  0  0  0  0  0  0  0  0  0  0  0
   14.6932  -23.6266   38.3344 O   0  0  0  0  0  0  0  0  0  0  0  0
   13.7381  -24.6823   38.0687 C   0  0  0  0  0  0  0  0  0  0  0  0
   12.8924  -24.0891   37.0210 C   0  0  0  0  0  0  0  0  0  0  0  0
 26 27  2  0  0  0
 27 28  1  0  0  0
 27 29  1  0  0  0
 28 31  2  0  0  0
 29 30  1  0  0  0
 30 31  1  0  0  0
 31  1  1  0  0  0
  1  2  1  0  0  0
  1  3  1  0  0  0
  2  8  1  0  0  0
  3  4  1  0  0  0
  3  5  1  0  0  0
  3  7  1  0  0  0
  5  6  1  0  0  0
  5 13  1  0  0  0
  7  8  1  0  0  0
  7  9  1  0  0  0
  7 10  1  0  0  0
 10 11  1  0  0  0
 10 12  1  0  0  0
 11 17  1  0  0  0
 12 13  1  0  0  0
 12 14  1  0  0  0
 14 15  1  0  0  0
 14 16  1  0  0  0
 14 22  1  0  0  0
 16 17  1  0  0  0
 16 18  1  0  0  0
 18 19  1  0  0  0
 19 20  1  0  0  0
 19 21  1  0  0  0
 21 22  1  0  0  0
  6 23  1  0  0  0
  9 24  1  0  0  0
 20 25  1  0  0  0
M  END
> <minimizedAffinity>
-13.65201

$$$$
1LKE_DOG_A_500


 31 35  0  0  0  0  0  0  0  0999 V2000
   11.2595  -24.6255   36.0906 C   0  0  0  0  0  0  0  0  0  0  0  0
   11.6134  -26.1421   36.0305 C   0  0  0  0  0  0  0  0  0  0  0  0
    9.9962  -24.5219   37.0400 C   0  0  0  0  0  0  0  0  0  0  0  0
   10.0040  -23.3070   37.9640 C   0  0  0  0  0  0  0  0  0  0  0  0
    8.7504  -24.4671   36.1208 C   0  0  0  0  0  0  0  0  0  0  0  0
    8.6591  -23.1698   35.4787 O   0  0  0  0  0  0  0  0  0  0  0  0
   10.0024  -25.8702   37.8157 C   0  0  0  0  0  0  0  0  0  0  0  0
   10.4891  -26.8830   36.7639 C   0  0  0  0  0  0  0  0  0  0  0  0
   11.0739  -25.8564   38.7917 O   0  0  0  0  0  0  0  0  0  0  0  0
    8.6542  -26.2049   38.4753 C   0  0  0  0  0  0  0  0  0  0  0  0
    8.6643  -27.6119   39.0782 C   0  0  0  0  0  0  0  0  0  0  0  0
    7.4169  -26.0322   37.5643 C   0  0  0  0  0  0  0  0  0  0  0  0
    7.4543  -24.6389   36.8508 C   0  0  0  0  0  0  0  0  0  0  0  0
    6.1035  -26.2824   38.3543 C   0  0  0  0  0  0  0  0  0  0  0  0
    5.9057  -25.2271   39.4756 C   0  0  0  0  0  0  0  0  0  0  0  0
    6.1126  -27.7164   38.9658 C   0  0  0  0  0  0  0  0  0  0  0  0
    7.3790  -27.9544   39.8170 C   0  0  0  0  0  0  0  0  0  0  0  0
    6.0319  -28.8300   37.8998 C   0  0  0  0  0  0  0  0  0  0  0  0
    4.8363  -28.6314   36.9662 C   0  0  0  0  0  0  0  0  0  0  0  0
    3.6471  -28.8715   37.7180 O   0  0  0  0  0  0  0  0  0  0  0  0
    4.8215  -27.2625   36.3537 C   0  0  0  0  0  0  0  0  0  0  0  0
    4.8625  -26.1962   37.4279 C   0  0  0  0  0  0  0  0  0  0  0  0
    8.5383  -22.4830   36.1530 H   0  0  0  0  0  0  0  0  0  0  0  0
   11.9108  -25.6432   38.3501 H   0  0  0  0  0  0  0  0  0  0  0  0
    3.5970  -28.2414   38.4538 H   0  0  0  0  0  0  0  0  0  0  0  0
   15.2482  -22.4592   37.7770 O   0  0  0  0  0  0  0  0  0  0  0  0
   14.2459  -22.7062   37.1748 C   0  0  0  0  0  0  0  0  0  0  0  0
   13.4044  -23.8751   37.2380 C   0  0  0  0  0  0  0  0  0  0  0  0
   13.6945  -21.8582   36.2846 O   0  0  0  0  0  0  0  0  0  0  0  0
   12.4613  -22.3935   35.7461 C   0  0  0  0  0  0  0  0  0  0  0  0
   12.3687  -23.7046   36.4072 C   0  0  0  0  0  0  0  0  0  0  0  0
 26 27  2  0  0  0
 27 28  1  0  0  0
 27 29  1  0  0  0
 28 31  2  0  0  0
 29 30  1  0  0  0
 30 31  1  0  0  0
 31  1  1  0  0  0
  1  2  1  0  0  0
  1  3  1  0  0  0
  2  8  1  0  0  0
  3  4  1  0  0  0
  3  5  1  0  0  0
  3  7  1  0  0  0
  5  6  1  0  0  0
  5 13  1  0  0  0
  7  8  1  0  0  0
  7  9  1  0  0  0
  7 10  1  0  0  0
 10 11  1  0  0  0
 10 12  1  0  0  0
 11 17  1  0  0  0
 12 13  1  0  0  0
 12 14  1  0  0  0
 14 15  1  0  0  0
 14 16  1  0  0  0
 14 22  1  0  0  0
 16 17  1  0  0  0
 16 18  1  0  0  0
 18 19  1  0  0  0
 19 20  1  0  0  0
 19 21  1  0  0  0
 21 22  1  0  0  0
  6 23  1  0  0  0
  9 24  1  0  0  0
 20 25  1  0  0  0
M  END
> <minimizedAffinity>
-13.33817

$$$$
1LKE_DOG_A_500


 31 35  0  0  0  0  0  0  0  0999 V2000
   10.8028  -24.2859   38.1320 C   0  0  0  0  0  0  0  0  0  0  0  0
    9.7562  -23.2331   38.6066 C   0  0  0  0  0  0  0  0  0  0  0  0
   10.0271  -25.2319   37.1264 C   0  0  0  0  0  0  0  0  0  0  0  0
   10.8488  -25.6700   35.9169 C   0  0  0  0  0  0  0  0  0  0  0  0
    9.5879  -26.4783   37.9348 C   0  0  0  0  0  0  0  0  0  0  0  0
   10.7324  -27.3264   38.2077 O   0  0  0  0  0  0  0  0  0  0  0  0
    8.7690  -24.4056   36.7339 C   0  0  0  0  0  0  0  0  0  0  0  0
    8.4025  -23.6752   38.0382 C   0  0  0  0  0  0  0  0  0  0  0  0
    9.1604  -23.3306   35.8438 O   0  0  0  0  0  0  0  0  0  0  0  0
    7.6444  -25.2549   36.1185 C   0  0  0  0  0  0  0  0  0  0  0  0
    6.3741  -24.4271   35.9081 C   0  0  0  0  0  0  0  0  0  0  0  0
    7.3051  -26.5521   36.8884 C   0  0  0  0  0  0  0  0  0  0  0  0
    8.6113  -27.3530   37.2113 C   0  0  0  0  0  0  0  0  0  0  0  0
    6.2429  -27.3909   36.1269 C   0  0  0  0  0  0  0  0  0  0  0  0
    6.7849  -27.8863   34.7591 C   0  0  0  0  0  0  0  0  0  0  0  0
    4.9482  -26.5489   35.9153 C   0  0  0  0  0  0  0  0  0  0  0  0
    5.2611  -25.2051   35.2216 C   0  0  0  0  0  0  0  0  0  0  0  0
    4.1988  -26.2491   37.2312 C   0  0  0  0  0  0  0  0  0  0  0  0
    3.9075  -27.5283   38.0183 C   0  0  0  0  0  0  0  0  0  0  0  0
    2.9275  -28.2743   37.2971 O   0  0  0  0  0  0  0  0  0  0  0  0
    5.1459  -28.3425   38.2477 C   0  0  0  0  0  0  0  0  0  0  0  0
    5.8336  -28.6505   36.9343 C   0  0  0  0  0  0  0  0  0  0  0  0
   11.1002  -27.6522   37.3713 H   0  0  0  0  0  0  0  0  0  0  0  0
    9.8693  -22.8120   36.2555 H   0  0  0  0  0  0  0  0  0  0  0  0
    3.2743  -28.5006   36.4200 H   0  0  0  0  0  0  0  0  0  0  0  0
   14.3922  -21.6722   36.2002 O   0  0  0  0  0  0  0  0  0  0  0  0
   13.7679  -22.5220   36.7627 C   0  0  0  0  0  0  0  0  0  0  0  0
   12.3477  -22.6134   36.9934 C   0  0  0  0  0  0  0  0  0  0  0  0
   14.3363  -23.6204   37.2974 O   0  0  0  0  0  0  0  0  0  0  0  0
   13.3386  -24.5006   37.8694 C   0  0  0  0  0  0  0  0  0  0  0  0
   12.0901  -23.7565   37.6406 C   0  0  0  0  0  0  0  0  0  0  0  0
 26 27  2  0  0  0
 27 28  1  0  0  0
 27 29  1  0  0  0
 28 31  2  0  0  0
 29 30  1  0  0  0
 30 31  1  0  0  0
 31  1  1  0  0  0
  1  2  1  0  0  0
  1  3  1  0  0  0
  2  8  1  0  0  0
  3  4  1  0  0  0
  3  5  1  0  0  0
  3  7  1  0  0  0
  5  6  1  0  0  0
  5 13  1  0  0  0
  7  8  1  0  0  0
  7  9  1  0  0  0
  7 10  1  0  0  0
 10 11  1  0  0  0
 10 12  1  0  0  0
 11 17  1  0  0  0
 12 13  1  0  0  0
 12 14  1  0  0  0
 14 15  1  0  0  0
 14 16  1  0  0  0
 14 22  1  0  0  0
 16 17  1  0  0  0
 16 18  1  0  0  0
 18 19  1  0  0  0
 19 20  1  0  0  0
 19 21  1  0  0  0
 21 22  1  0  0  0
  6 23  1  0  0  0
  9 24  1  0  0  0
 20 25  1  0  0  0
M  END
> <minimizedAffinity>
-12.75699

$$$$
1LKE_DOG_A_500


 31 35  0  0  0  0  0  0  0  0999 V2000
    6.3617  -26.8345   38.6797 C   0  0  0  0  0  0  0  0  0  0  0  0
    7.3582  -27.9502   39.1170 C   0  0  0  0  0  0  0  0  0  0  0  0
    7.1493  -25.9506   37.6279 C   0  0  0  0  0  0  0  0  0  0  0  0
    6.3017  -25.4693   36.4533 C   0  0  0  0  0  0  0  0  0  0  0  0
    7.7075  -24.7292   38.4002 C   0  0  0  0  0  0  0  0  0  0  0  0
    6.6356  -23.8048   38.7166 O   0  0  0  0  0  0  0  0  0  0  0  0
    8.3303  -26.8618   37.1865 C   0  0  0  0  0  0  0  0  0  0  0  0
    8.7094  -27.6038   38.4806 C   0  0  0  0  0  0  0  0  0  0  0  0
    7.8270  -27.9160   36.3284 O   0  0  0  0  0  0  0  0  0  0  0  0
    9.4778  -26.0942   36.5092 C   0  0  0  0  0  0  0  0  0  0  0  0
   10.6794  -27.0062   36.2492 C   0  0  0  0  0  0  0  0  0  0  0  0
    9.9379  -24.8159   37.2472 C   0  0  0  0  0  0  0  0  0  0  0  0
    8.7041  -23.9274   37.6217 C   0  0  0  0  0  0  0  0  0  0  0  0
   11.0156  -24.0558   36.4270 C   0  0  0  0  0  0  0  0  0  0  0  0
   10.4430  -23.5373   35.0804 C   0  0  0  0  0  0  0  0  0  0  0  0
   12.2405  -24.9836   36.1648 C   0  0  0  0  0  0  0  0  0  0  0  0
   11.8073  -26.3096   35.5023 C   0  0  0  0  0  0  0  0  0  0  0  0
   13.0303  -25.3212   37.4476 C   0  0  0  0  0  0  0  0  0  0  0  0
   13.4423  -24.0574   38.2052 C   0  0  0  0  0  0  0  0  0  0  0  0
   14.4339  -23.3842   37.4302 O   0  0  0  0  0  0  0  0  0  0  0  0
   12.2725  -23.1610   38.4828 C   0  0  0  0  0  0  0  0  0  0  0  0
   11.5448  -22.8193   37.1996 C   0  0  0  0  0  0  0  0  0  0  0  0
    6.2507  -23.4625   37.8946 H   0  0  0  0  0  0  0  0  0  0  0  0
    7.1059  -28.3830   36.7788 H   0  0  0  0  0  0  0  0  0  0  0  0
   14.0614  -23.1429   36.5677 H   0  0  0  0  0  0  0  0  0  0  0  0
    2.4814  -29.2926   37.1474 O   0  0  0  0  0  0  0  0  0  0  0  0
    3.2050  -28.4385   37.5661 C   0  0  0  0  0  0  0  0  0  0  0  0
    4.6242  -28.4823   37.8160 C   0  0  0  0  0  0  0  0  0  0  0  0
    2.7767  -27.2002   37.8801 O   0  0  0  0  0  0  0  0  0  0  0  0
    3.8745  -26.3606   38.3129 C   0  0  0  0  0  0  0  0  0  0  0  0
    5.0205  -27.2816   38.2554 C   0  0  0  0  0  0  0  0  0  0  0  0
 26 27  2  0  0  0
 27 28  1  0  0  0
 27 29  1  0  0  0
 28 31  2  0  0  0
 29 30  1  0  0  0
 30 31  1  0  0  0
 31  1  1  0  0  0
  1  2  1  0  0  0
  1  3  1  0  0  0
  2  8  1  0  0  0
  3  4  1  0  0  0
  3  5  1  0  0  0
  3  7  1  0  0  0
  5  6  1  0  0  0
  5 13  1  0  0  0
  7  8  1  0  0  0
  7  9  1  0  0  0
  7 10  1  0  0  0
 10 11  1  0  0  0
 10 12  1  0  0  0
 11 17  1  0  0  0
 12 13  1  0  0  0
 12 14  1  0  0  0
 14 15  1  0  0  0
 14 16  1  0  0  0
 14 22  1  0  0  0
 16 17  1  0  0  0
 16 18  1  0  0  0
 18 19  1  0  0  0
 19 20  1  0  0  0
 19 21  1  0  0  0
 21 22  1  0  0  0
  6 23  1  0  0  0
  9 24  1  0  0  0
 20 25  1  0  0  0
M  END
> <minimizedAffinity>
-11.62464

$$$$
1LKE_DOG_A_500


 31 35  0  0  0  0  0  0  0  0999 V2000
   12.7048  -22.6076   36.7249 C   0  0  0  0  0  0  0  0  0  0  0  0
   12.2050  -22.6916   35.2511 C   0  0  0  0  0  0  0  0  0  0  0  0
   11.8543  -23.6788   37.5232 C   0  0  0  0  0  0  0  0  0  0  0  0
   12.6427  -24.4407   38.5851 C   0  0  0  0  0  0  0  0  0  0  0  0
   10.6869  -22.9123   38.1935 C   0  0  0  0  0  0  0  0  0  0  0  0
   11.1782  -22.1320   39.3131 O   0  0  0  0  0  0  0  0  0  0  0  0
   11.2870  -24.6069   36.4111 C   0  0  0  0  0  0  0  0  0  0  0  0
   10.9975  -23.6365   35.2520 C   0  0  0  0  0  0  0  0  0  0  0  0
   12.3532  -25.4416   35.8938 O   0  0  0  0  0  0  0  0  0  0  0  0
   10.0904  -25.4558   36.8715 C   0  0  0  0  0  0  0  0  0  0  0  0
    9.4676  -26.2202   35.7006 C   0  0  0  0  0  0  0  0  0  0  0  0
    8.9926  -24.6819   37.6374 C   0  0  0  0  0  0  0  0  0  0  0  0
    9.6299  -23.8046   38.7670 C   0  0  0  0  0  0  0  0  0  0  0  0
    7.8903  -25.6450   38.1563 C   0  0  0  0  0  0  0  0  0  0  0  0
    8.4557  -26.6448   39.2007 C   0  0  0  0  0  0  0  0  0  0  0  0
    7.2541  -26.4212   36.9634 C   0  0  0  0  0  0  0  0  0  0  0  0
    8.3326  -27.1407   36.1244 C   0  0  0  0  0  0  0  0  0  0  0  0
    6.4339  -25.5157   36.0199 C   0  0  0  0  0  0  0  0  0  0  0  0
    5.3807  -24.7114   36.7846 C   0  0  0  0  0  0  0  0  0  0  0  0
    4.3817  -25.6211   37.2444 O   0  0  0  0  0  0  0  0  0  0  0  0
    5.9782  -23.9428   37.9254 C   0  0  0  0  0  0  0  0  0  0  0  0
    6.7420  -24.8668   38.8504 C   0  0  0  0  0  0  0  0  0  0  0  0
   11.5436  -22.7271   39.9863 H   0  0  0  0  0  0  0  0  0  0  0  0
   13.0936  -24.8822   35.6113 H   0  0  0  0  0  0  0  0  0  0  0  0
    4.7872  -26.2754   37.8346 H   0  0  0  0  0  0  0  0  0  0  0  0
   17.4841  -21.8412   36.8608 O   0  0  0  0  0  0  0  0  0  0  0  0
   16.3929  -22.3041   37.0142 C   0  0  0  0  0  0  0  0  0  0  0  0
   15.1189  -21.8201   36.5441 C   0  0  0  0  0  0  0  0  0  0  0  0
   16.1672  -23.4475   37.6903 O   0  0  0  0  0  0  0  0  0  0  0  0
   14.7616  -23.7962   37.6746 C   0  0  0  0  0  0  0  0  0  0  0  0
   14.1652  -22.6775   36.9279 C   0  0  0  0  0  0  0  0  0  0  0  0
 26 27  2  0  0  0
 27 28  1  0  0  0
 27 29  1  0  0  0
 28 31  2  0  0  0
 29 30  1  0  0  0
 30 31  1  0  0  0
 31  1  1  0  0  0
  1  2  1  0  0  0
  1  3  1  0  0  0
  2  8  1  0  0  0
  3  4  1  0  0  0
  3  5  1  0  0  0
  3  7  1  0  0  0
  5  6  1  0  0  0
  5 13  1  0  0  0
  7  8  1  0  0  0
  7  9  1  0  0  0
  7 10  1  0  0  0
 10 11  1  0  0  0
 10 12  1  0  0  0
 11 17  1  0  0  0
 12 13  1  0  0  0
 12 14  1  0  0  0
 14 15  1  0  0  0
 14 16  1  0  0  0
 14 22  1  0  0  0
 16 17  1  0  0  0
 16 18  1  0  0  0
 18 19  1  0  0  0
 19 20  1  0  0  0
 19 21  1  0  0  0
 21 22  1  0  0  0
  6 23  1  0  0  0
  9 24  1  0  0  0
 20 25  1  0  0  0
M  END
> <minimizedAffinity>
-11.15973

$$$$
