1V2W_ANH_T_800


 35 36  0  0  0  0  0  0  0  0999 V2000
   -3.3070   18.6918   17.9662 C   0  0  0  0  0  0  0  0  0  0  0  0
   -2.0668   19.5009   17.7903 N   0  0  0  0  0  0  0  0  0  0  0  0
   -1.8390   20.3591   16.7862 C   0  0  0  0  0  0  0  0  0  0  0  0
   -2.5564   20.4468   15.7932 O   0  0  0  0  0  0  0  0  0  0  0  0
   -1.3585   19.3964   18.4660 H   0  0  0  0  0  0  0  0  0  0  0  0
   -0.6165   21.2505   16.9057 C   0  0  0  0  0  0  0  0  0  0  0  0
    0.2237   20.9997   18.1080 N   0  0  0  0  0  0  0  0  0  0  0  0
   -0.4047   20.6934   18.8507 H   0  0  0  0  0  0  0  0  0  0  0  0
    1.4768   19.8671   18.0250 S   0  0  0  0  0  0  0  0  0  0  0  0
    0.8103   18.4432   18.3107 O   0  0  0  0  0  0  0  0  0  0  0  0
    2.0225   20.0666   16.5653 O   0  0  0  0  0  0  0  0  0  0  0  0
    5.8605   21.6928   21.7909 C   0  0  0  0  0  0  0  0  0  0  0  0
    4.7692   21.1862   20.9172 C   0  0  0  0  0  0  0  0  0  0  0  0
    3.9381   20.0756   21.2993 C   0  0  0  0  0  0  0  0  0  0  0  0
    2.8933   19.6279   20.4162 C   0  0  0  0  0  0  0  0  0  0  0  0
    2.7202   20.3218   19.1608 C   0  0  0  0  0  0  0  0  0  0  0  0
    3.5516   21.4187   18.7942 C   0  0  0  0  0  0  0  0  0  0  0  0
    4.5644   21.8418   19.6710 C   0  0  0  0  0  0  0  0  0  0  0  0
   -4.6494   19.5039   18.3013 C   0  0  0  0  0  0  0  0  0  0  0  0
   -5.7471   19.0015   17.9524 O   0  0  0  0  0  0  0  0  0  0  0  0
   -4.5582   20.7760   18.9838 O   0  0  0  0  0  0  0  0  0  0  0  0
   -4.2028   20.9955   20.4023 C   0  0  0  0  0  0  0  0  0  0  0  0
   -3.0565   17.6486   19.0593 C   0  0  0  0  0  0  0  0  0  0  0  0
   -2.2934   16.3847   18.6700 C   0  0  0  0  0  0  0  0  0  0  0  0
   -1.3427   15.8615   19.5826 C   0  0  0  0  0  0  0  0  0  0  0  0
   -0.6029   14.6880   19.2778 C   0  0  0  0  0  0  0  0  0  0  0  0
   -0.8165   14.0246   18.0414 C   0  0  0  0  0  0  0  0  0  0  0  0
   -1.7837   14.5134   17.0536 C   0  0  0  0  0  0  0  0  0  0  0  0
   -2.5168   15.7153   17.4066 C   0  0  0  0  0  0  0  0  0  0  0  0
   -1.9805   13.8386   15.8369 C   0  0  0  0  0  0  0  0  0  0  0  0
   -2.4922   14.3709   14.7484 N   0  0  0  0  0  0  0  0  0  0  0  0
   -1.6827   12.5620   15.6325 N   0  0  0  0  0  0  0  0  0  0  0  0
   -2.7643   15.3171   14.7442 H   0  0  0  0  0  0  0  0  0  0  0  0
   -2.6031   13.8232   13.9378 H   0  0  0  0  0  0  0  0  0  0  0  0
   -1.2896   12.0258   16.3586 H   0  0  0  0  0  0  0  0  0  0  0  0
  2  1  1  0  0  0
  2  3  1  0  0  0
  1 23  1  0  0  0
  1 19  1  0  0  0
 23 24  1  0  0  0
 19 20  2  0  0  0
 19 21  1  0  0  0
 21 22  1  0  0  0
 24 25  2  0  0  0
 24 29  1  0  0  0
 25 26  1  0  0  0
 26 27  2  0  0  0
 27 28  1  0  0  0
 28 29  2  0  0  0
 28 30  1  0  0  0
 30 31  1  0  0  0
 30 32  2  0  0  0
  3  6  1  0  0  0
  3  4  2  0  0  0
  6  7  1  0  0  0
  7  9  1  0  0  0
 12 13  1  0  0  0
 13 14  1  0  0  0
 13 18  2  0  0  0
 14 15  2  0  0  0
 15 16  1  0  0  0
 16 17  2  0  0  0
 16  9  1  0  0  0
 17 18  1  0  0  0
  9 10  2  0  0  0
  9 11  2  0  0  0
  2  5  1  0  0  0
 31 33  1  0  0  0
 31 34  1  0  0  0
 32 35  1  0  0  0
  7  8  1  0  0  0
M  END
> <minimizedAffinity>
-7.40449

$$$$
1V2W_ANH_T_800


 35 36  0  0  0  0  0  0  0  0999 V2000
   -2.5625   18.8554   18.0677 C   0  0  0  0  0  0  0  0  0  0  0  0
   -1.3281   19.5147   18.5828 N   0  0  0  0  0  0  0  0  0  0  0  0
   -0.0747   19.1849   18.2405 C   0  0  0  0  0  0  0  0  0  0  0  0
    0.2097   18.1795   17.5950 O   0  0  0  0  0  0  0  0  0  0  0  0
   -1.4429   20.2512   19.2258 H   0  0  0  0  0  0  0  0  0  0  0  0
    1.0321   20.1174   18.6974 C   0  0  0  0  0  0  0  0  0  0  0  0
    2.2132   20.1741   17.7940 N   0  0  0  0  0  0  0  0  0  0  0  0
    2.2279   19.2995   17.2693 H   0  0  0  0  0  0  0  0  0  0  0  0
    2.3372   21.4274   16.6653 S   0  0  0  0  0  0  0  0  0  0  0  0
    0.9477   21.4561   15.8768 O   0  0  0  0  0  0  0  0  0  0  0  0
    2.6141   22.6795   17.5731 O   0  0  0  0  0  0  0  0  0  0  0  0
    7.0459   20.5939   12.9417 C   0  0  0  0  0  0  0  0  0  0  0  0
    5.9303   20.7590   13.9109 C   0  0  0  0  0  0  0  0  0  0  0  0
    6.0241   20.2955   15.2697 C   0  0  0  0  0  0  0  0  0  0  0  0
    4.9145   20.4839   16.1672 C   0  0  0  0  0  0  0  0  0  0  0  0
    3.7319   21.1394   15.6581 C   0  0  0  0  0  0  0  0  0  0  0  0
    3.6518   21.5914   14.3097 C   0  0  0  0  0  0  0  0  0  0  0  0
    4.7464   21.4000   13.4503 C   0  0  0  0  0  0  0  0  0  0  0  0
   -3.8434   19.7987   17.8594 C   0  0  0  0  0  0  0  0  0  0  0  0
   -3.6578   20.9569   17.4087 O   0  0  0  0  0  0  0  0  0  0  0  0
   -5.1576   19.2962   18.1951 O   0  0  0  0  0  0  0  0  0  0  0  0
   -6.4069   19.5071   17.4325 C   0  0  0  0  0  0  0  0  0  0  0  0
   -2.9267   17.7023   19.0077 C   0  0  0  0  0  0  0  0  0  0  0  0
   -2.2950   16.3395   18.7339 C   0  0  0  0  0  0  0  0  0  0  0  0
   -1.5249   15.7336   19.7587 C   0  0  0  0  0  0  0  0  0  0  0  0
   -0.9138   14.4663   19.5643 C   0  0  0  0  0  0  0  0  0  0  0  0
   -1.0751   13.7916   18.3261 C   0  0  0  0  0  0  0  0  0  0  0  0
   -1.8577   14.3627   17.2254 C   0  0  0  0  0  0  0  0  0  0  0  0
   -2.4638   15.6590   17.4679 C   0  0  0  0  0  0  0  0  0  0  0  0
   -2.0061   13.6752   16.0090 C   0  0  0  0  0  0  0  0  0  0  0  0
   -2.6973   14.1034   14.9751 N   0  0  0  0  0  0  0  0  0  0  0  0
   -1.4718   12.4889   15.7498 N   0  0  0  0  0  0  0  0  0  0  0  0
   -3.1555   14.9739   15.0157 H   0  0  0  0  0  0  0  0  0  0  0  0
   -2.7565   13.5535   14.1606 H   0  0  0  0  0  0  0  0  0  0  0  0
   -0.9234   12.0366   16.4310 H   0  0  0  0  0  0  0  0  0  0  0  0
  2  1  1  0  0  0
  2  3  1  0  0  0
  1 23  1  0  0  0
  1 19  1  0  0  0
 23 24  1  0  0  0
 19 20  2  0  0  0
 19 21  1  0  0  0
 21 22  1  0  0  0
 24 25  2  0  0  0
 24 29  1  0  0  0
 25 26  1  0  0  0
 26 27  2  0  0  0
 27 28  1  0  0  0
 28 29  2  0  0  0
 28 30  1  0  0  0
 30 31  1  0  0  0
 30 32  2  0  0  0
  3  6  1  0  0  0
  3  4  2  0  0  0
  6  7  1  0  0  0
  7  9  1  0  0  0
 12 13  1  0  0  0
 13 14  1  0  0  0
 13 18  2  0  0  0
 14 15  2  0  0  0
 15 16  1  0  0  0
 16 17  2  0  0  0
 16  9  1  0  0  0
 17 18  1  0  0  0
  9 10  2  0  0  0
  9 11  2  0  0  0
  2  5  1  0  0  0
 31 33  1  0  0  0
 31 34  1  0  0  0
 32 35  1  0  0  0
  7  8  1  0  0  0
M  END
> <minimizedAffinity>
-7.30825

$$$$
1V2W_ANH_T_800


 35 36  0  0  0  0  0  0  0  0999 V2000
   -2.0517   18.9381   18.5484 C   0  0  0  0  0  0  0  0  0  0  0  0
   -0.7664   19.1082   19.2850 N   0  0  0  0  0  0  0  0  0  0  0  0
    0.4467   18.7994   18.8056 C   0  0  0  0  0  0  0  0  0  0  0  0
    0.6250   18.1719   17.7650 O   0  0  0  0  0  0  0  0  0  0  0  0
   -0.8125   19.4771   20.1966 H   0  0  0  0  0  0  0  0  0  0  0  0
    1.6449   19.2540   19.6185 C   0  0  0  0  0  0  0  0  0  0  0  0
    1.6251   20.6894   20.0104 N   0  0  0  0  0  0  0  0  0  0  0  0
    2.3965   20.8297   20.6628 H   0  0  0  0  0  0  0  0  0  0  0  0
    1.7670   21.8792   18.8169 S   0  0  0  0  0  0  0  0  0  0  0  0
    0.3510   21.9413   18.0791 O   0  0  0  0  0  0  0  0  0  0  0  0
    2.1406   23.1574   19.6506 O   0  0  0  0  0  0  0  0  0  0  0  0
    6.2132   20.3470   14.9939 C   0  0  0  0  0  0  0  0  0  0  0  0
    5.1768   20.7552   15.9789 C   0  0  0  0  0  0  0  0  0  0  0  0
    5.4990   21.5202   17.1541 C   0  0  0  0  0  0  0  0  0  0  0  0
    4.4556   21.8913   18.0735 C   0  0  0  0  0  0  0  0  0  0  0  0
    3.1055   21.4720   17.7752 C   0  0  0  0  0  0  0  0  0  0  0  0
    2.8009   20.7130   16.6090 C   0  0  0  0  0  0  0  0  0  0  0  0
    3.8332   20.3627   15.7230 C   0  0  0  0  0  0  0  0  0  0  0  0
   -3.0447   20.1981   18.5419 C   0  0  0  0  0  0  0  0  0  0  0  0
   -3.5643   20.5472   19.6316 O   0  0  0  0  0  0  0  0  0  0  0  0
   -3.3121   20.8853   17.2974 O   0  0  0  0  0  0  0  0  0  0  0  0
   -2.3979   21.0111   16.1421 C   0  0  0  0  0  0  0  0  0  0  0  0
   -2.7812   17.7177   19.1180 C   0  0  0  0  0  0  0  0  0  0  0  0
   -2.2234   16.3375   18.7786 C   0  0  0  0  0  0  0  0  0  0  0  0
   -1.5230   15.6257   19.7852 C   0  0  0  0  0  0  0  0  0  0  0  0
   -0.9824   14.3372   19.5303 C   0  0  0  0  0  0  0  0  0  0  0  0
   -1.1449   13.7485   18.2491 C   0  0  0  0  0  0  0  0  0  0  0  0
   -1.8575   14.4310   17.1644 C   0  0  0  0  0  0  0  0  0  0  0  0
   -2.3928   15.7453   17.4692 C   0  0  0  0  0  0  0  0  0  0  0  0
   -2.0085   13.8275   15.9045 C   0  0  0  0  0  0  0  0  0  0  0  0
   -1.6503   12.5980   15.6045 N   0  0  0  0  0  0  0  0  0  0  0  0
   -2.5267   14.4312   14.8428 N   0  0  0  0  0  0  0  0  0  0  0  0
   -1.2474   12.0208   16.2929 H   0  0  0  0  0  0  0  0  0  0  0  0
   -1.7850   12.2548   14.6917 H   0  0  0  0  0  0  0  0  0  0  0  0
   -2.8427   15.3611   14.9107 H   0  0  0  0  0  0  0  0  0  0  0  0
  2  1  1  0  0  0
  2  3  1  0  0  0
  1 23  1  0  0  0
  1 19  1  0  0  0
 23 24  1  0  0  0
 19 20  2  0  0  0
 19 21  1  0  0  0
 21 22  1  0  0  0
 24 25  2  0  0  0
 24 29  1  0  0  0
 25 26  1  0  0  0
 26 27  2  0  0  0
 27 28  1  0  0  0
 28 29  2  0  0  0
 28 30  1  0  0  0
 30 31  1  0  0  0
 30 32  2  0  0  0
  3  6  1  0  0  0
  3  4  2  0  0  0
  6  7  1  0  0  0
  7  9  1  0  0  0
 12 13  1  0  0  0
 13 14  1  0  0  0
 13 18  2  0  0  0
 14 15  2  0  0  0
 15 16  1  0  0  0
 16 17  2  0  0  0
 16  9  1  0  0  0
 17 18  1  0  0  0
  9 10  2  0  0  0
  9 11  2  0  0  0
  2  5  1  0  0  0
 31 33  1  0  0  0
 31 34  1  0  0  0
 32 35  1  0  0  0
  7  8  1  0  0  0
M  END
> <minimizedAffinity>
-7.24939

$$$$
1V2W_ANH_T_800


 35 36  0  0  0  0  0  0  0  0999 V2000
   -3.3097   18.6360   18.1002 C   0  0  0  0  0  0  0  0  0  0  0  0
   -2.1204   19.4785   17.7851 N   0  0  0  0  0  0  0  0  0  0  0  0
   -2.0258   20.3278   16.7524 C   0  0  0  0  0  0  0  0  0  0  0  0
   -2.8456   20.3793   15.8395 O   0  0  0  0  0  0  0  0  0  0  0  0
   -1.3423   19.4051   18.3837 H   0  0  0  0  0  0  0  0  0  0  0  0
   -0.8255   21.2565   16.7320 C   0  0  0  0  0  0  0  0  0  0  0  0
    0.4945   20.5700   16.7100 N   0  0  0  0  0  0  0  0  0  0  0  0
    0.9580   20.8456   15.8442 H   0  0  0  0  0  0  0  0  0  0  0  0
    1.5944   20.8426   17.9654 S   0  0  0  0  0  0  0  0  0  0  0  0
    2.9885   20.2336   17.4766 O   0  0  0  0  0  0  0  0  0  0  0  0
    1.5654   22.4066   18.1125 O   0  0  0  0  0  0  0  0  0  0  0  0
   -0.3855   18.1145   23.0022 C   0  0  0  0  0  0  0  0  0  0  0  0
    0.0512   18.8436   21.7821 C   0  0  0  0  0  0  0  0  0  0  0  0
   -0.4368   20.1588   21.4624 C   0  0  0  0  0  0  0  0  0  0  0  0
    0.0217   20.8206   20.2692 C   0  0  0  0  0  0  0  0  0  0  0  0
    0.9671   20.1252   19.4264 C   0  0  0  0  0  0  0  0  0  0  0  0
    1.4404   18.8223   19.7539 C   0  0  0  0  0  0  0  0  0  0  0  0
    0.9823   18.1943   20.9241 C   0  0  0  0  0  0  0  0  0  0  0  0
   -4.6439   19.4150   18.5326 C   0  0  0  0  0  0  0  0  0  0  0  0
   -5.7496   18.8566   18.3209 O   0  0  0  0  0  0  0  0  0  0  0  0
   -4.5370   20.7221   19.1429 O   0  0  0  0  0  0  0  0  0  0  0  0
   -4.0203   21.0279   20.4942 C   0  0  0  0  0  0  0  0  0  0  0  0
   -2.9234   17.6397   19.1974 C   0  0  0  0  0  0  0  0  0  0  0  0
   -2.1924   16.3680   18.7734 C   0  0  0  0  0  0  0  0  0  0  0  0
   -1.2294   15.8162   19.6558 C   0  0  0  0  0  0  0  0  0  0  0  0
   -0.5180   14.6342   19.3180 C   0  0  0  0  0  0  0  0  0  0  0  0
   -0.7731   13.9912   18.0786 C   0  0  0  0  0  0  0  0  0  0  0  0
   -1.7551   14.5098   17.1211 C   0  0  0  0  0  0  0  0  0  0  0  0
   -2.4581   15.7195   17.5073 C   0  0  0  0  0  0  0  0  0  0  0  0
   -1.9931   13.8548   15.9010 C   0  0  0  0  0  0  0  0  0  0  0  0
   -1.7051   12.5968   15.6466 N   0  0  0  0  0  0  0  0  0  0  0  0
   -2.5340   14.4308   14.8353 N   0  0  0  0  0  0  0  0  0  0  0  0
   -1.2959   12.0348   16.3438 H   0  0  0  0  0  0  0  0  0  0  0  0
   -1.8986   12.2172   14.7591 H   0  0  0  0  0  0  0  0  0  0  0  0
   -2.8043   15.3768   14.8711 H   0  0  0  0  0  0  0  0  0  0  0  0
  2  1  1  0  0  0
  2  3  1  0  0  0
  1 23  1  0  0  0
  1 19  1  0  0  0
 23 24  1  0  0  0
 19 20  2  0  0  0
 19 21  1  0  0  0
 21 22  1  0  0  0
 24 25  2  0  0  0
 24 29  1  0  0  0
 25 26  1  0  0  0
 26 27  2  0  0  0
 27 28  1  0  0  0
 28 29  2  0  0  0
 28 30  1  0  0  0
 30 31  1  0  0  0
 30 32  2  0  0  0
  3  6  1  0  0  0
  3  4  2  0  0  0
  6  7  1  0  0  0
  7  9  1  0  0  0
 12 13  1  0  0  0
 13 14  1  0  0  0
 13 18  2  0  0  0
 14 15  2  0  0  0
 15 16  1  0  0  0
 16 17  2  0  0  0
 16  9  1  0  0  0
 17 18  1  0  0  0
  9 10  2  0  0  0
  9 11  2  0  0  0
  2  5  1  0  0  0
 31 33  1  0  0  0
 31 34  1  0  0  0
 32 35  1  0  0  0
  7  8  1  0  0  0
M  END
> <minimizedAffinity>
-7.15491

$$$$
1V2W_ANH_T_800


 35 36  0  0  0  0  0  0  0  0999 V2000
   -0.1575   18.7628   21.0661 C   0  0  0  0  0  0  0  0  0  0  0  0
    0.4359   19.8371   20.2191 N   0  0  0  0  0  0  0  0  0  0  0  0
   -0.2480   20.8393   19.6493 C   0  0  0  0  0  0  0  0  0  0  0  0
   -1.4746   20.8885   19.6128 O   0  0  0  0  0  0  0  0  0  0  0  0
    1.4080   19.8080   20.0662 H   0  0  0  0  0  0  0  0  0  0  0  0
    0.5636   21.9537   19.0147 C   0  0  0  0  0  0  0  0  0  0  0  0
    1.1109   21.6381   17.6674 N   0  0  0  0  0  0  0  0  0  0  0  0
    1.5629   22.4857   17.3245 H   0  0  0  0  0  0  0  0  0  0  0  0
    2.2292   20.3807   17.4979 S   0  0  0  0  0  0  0  0  0  0  0  0
    3.0730   20.3490   18.8545 O   0  0  0  0  0  0  0  0  0  0  0  0
    1.3065   19.1320   17.2577 O   0  0  0  0  0  0  0  0  0  0  0  0
    5.2763   21.4727   12.3741 C   0  0  0  0  0  0  0  0  0  0  0  0
    4.5969   21.1834   13.6646 C   0  0  0  0  0  0  0  0  0  0  0  0
    5.3255   20.7810   14.8382 C   0  0  0  0  0  0  0  0  0  0  0  0
    4.6175   20.5161   16.0631 C   0  0  0  0  0  0  0  0  0  0  0  0
    3.1804   20.6655   16.0638 C   0  0  0  0  0  0  0  0  0  0  0  0
    2.4713   21.0625   14.8940 C   0  0  0  0  0  0  0  0  0  0  0  0
    3.1811   21.3185   13.7090 C   0  0  0  0  0  0  0  0  0  0  0  0
    0.2157   18.7937   22.6261 C   0  0  0  0  0  0  0  0  0  0  0  0
    0.7495   19.8342   23.0859 O   0  0  0  0  0  0  0  0  0  0  0  0
   -0.0665   17.6365   23.4469 O   0  0  0  0  0  0  0  0  0  0  0  0
   -1.2710   17.4115   24.2747 C   0  0  0  0  0  0  0  0  0  0  0  0
    0.2345   17.4052   20.4753 C   0  0  0  0  0  0  0  0  0  0  0  0
   -0.7389   16.7508   19.4979 C   0  0  0  0  0  0  0  0  0  0  0  0
   -1.9782   17.3925   19.2473 C   0  0  0  0  0  0  0  0  0  0  0  0
   -2.9242   16.8336   18.3473 C   0  0  0  0  0  0  0  0  0  0  0  0
   -2.6275   15.6138   17.6849 C   0  0  0  0  0  0  0  0  0  0  0  0
   -1.3653   14.8992   17.8998 C   0  0  0  0  0  0  0  0  0  0  0  0
   -0.4287   15.5064   18.8277 C   0  0  0  0  0  0  0  0  0  0  0  0
   -1.0919   13.6942   17.2309 C   0  0  0  0  0  0  0  0  0  0  0  0
   -1.7928   13.2061   16.2305 N   0  0  0  0  0  0  0  0  0  0  0  0
   -0.0883   12.8811   17.5336 N   0  0  0  0  0  0  0  0  0  0  0  0
   -2.5741   13.6990   15.8901 H   0  0  0  0  0  0  0  0  0  0  0  0
   -1.5361   12.3479   15.8222 H   0  0  0  0  0  0  0  0  0  0  0  0
    0.5285   13.1118   18.2654 H   0  0  0  0  0  0  0  0  0  0  0  0
  2  1  1  0  0  0
  2  3  1  0  0  0
  1 23  1  0  0  0
  1 19  1  0  0  0
 23 24  1  0  0  0
 19 20  2  0  0  0
 19 21  1  0  0  0
 21 22  1  0  0  0
 24 25  2  0  0  0
 24 29  1  0  0  0
 25 26  1  0  0  0
 26 27  2  0  0  0
 27 28  1  0  0  0
 28 29  2  0  0  0
 28 30  1  0  0  0
 30 31  1  0  0  0
 30 32  2  0  0  0
  3  6  1  0  0  0
  3  4  2  0  0  0
  6  7  1  0  0  0
  7  9  1  0  0  0
 12 13  1  0  0  0
 13 14  1  0  0  0
 13 18  2  0  0  0
 14 15  2  0  0  0
 15 16  1  0  0  0
 16 17  2  0  0  0
 16  9  1  0  0  0
 17 18  1  0  0  0
  9 10  2  0  0  0
  9 11  2  0  0  0
  2  5  1  0  0  0
 31 33  1  0  0  0
 31 34  1  0  0  0
 32 35  1  0  0  0
  7  8  1  0  0  0
M  END
> <minimizedAffinity>
-7.13317

$$$$
1V2W_ANH_T_800


 35 36  0  0  0  0  0  0  0  0999 V2000
   -2.1829   18.9252   17.8903 C   0  0  0  0  0  0  0  0  0  0  0  0
   -1.0427   19.6930   18.4683 N   0  0  0  0  0  0  0  0  0  0  0  0
    0.2543   19.4220   18.2656 C   0  0  0  0  0  0  0  0  0  0  0  0
    0.6558   18.3973   17.7205 O   0  0  0  0  0  0  0  0  0  0  0  0
   -1.2600   20.4606   19.0452 H   0  0  0  0  0  0  0  0  0  0  0  0
    1.2576   20.4501   18.7551 C   0  0  0  0  0  0  0  0  0  0  0  0
    1.2444   20.6848   20.2245 N   0  0  0  0  0  0  0  0  0  0  0  0
    0.2703   20.6393   20.5237 H   0  0  0  0  0  0  0  0  0  0  0  0
    2.1197   19.6532   21.2392 S   0  0  0  0  0  0  0  0  0  0  0  0
    1.0532   18.9880   22.2257 O   0  0  0  0  0  0  0  0  0  0  0  0
    2.7941   18.6638   20.2220 O   0  0  0  0  0  0  0  0  0  0  0  0
    6.6073   22.8564   23.7557 C   0  0  0  0  0  0  0  0  0  0  0  0
    5.4661   22.0776   23.2058 C   0  0  0  0  0  0  0  0  0  0  0  0
    4.2542   21.8679   23.9523 C   0  0  0  0  0  0  0  0  0  0  0  0
    3.1789   21.1082   23.3704 C   0  0  0  0  0  0  0  0  0  0  0  0
    3.3642   20.5768   22.0397 C   0  0  0  0  0  0  0  0  0  0  0  0
    4.5703   20.7903   21.3127 C   0  0  0  0  0  0  0  0  0  0  0  0
    5.6071   21.5364   21.8974 C   0  0  0  0  0  0  0  0  0  0  0  0
   -3.4608   19.7795   17.4310 C   0  0  0  0  0  0  0  0  0  0  0  0
   -3.3184   21.0180   17.2728 O   0  0  0  0  0  0  0  0  0  0  0  0
   -4.7245   19.1085   17.2180 O   0  0  0  0  0  0  0  0  0  0  0  0
   -6.0592   19.7400   17.1392 C   0  0  0  0  0  0  0  0  0  0  0  0
   -2.6180   17.8629   18.9042 C   0  0  0  0  0  0  0  0  0  0  0  0
   -2.1716   16.4239   18.6572 C   0  0  0  0  0  0  0  0  0  0  0  0
   -1.5761   15.7083   19.7267 C   0  0  0  0  0  0  0  0  0  0  0  0
   -1.1420   14.3664   19.5588 C   0  0  0  0  0  0  0  0  0  0  0  0
   -1.3064   13.7272   18.3022 C   0  0  0  0  0  0  0  0  0  0  0  0
   -1.9137   14.4105   17.1557 C   0  0  0  0  0  0  0  0  0  0  0  0
   -2.3422   15.7803   17.3724 C   0  0  0  0  0  0  0  0  0  0  0  0
   -2.0689   13.7568   15.9217 C   0  0  0  0  0  0  0  0  0  0  0  0
   -2.7048   14.2455   14.8791 N   0  0  0  0  0  0  0  0  0  0  0  0
   -1.5985   12.5460   15.6518 N   0  0  0  0  0  0  0  0  0  0  0  0
   -3.1118   15.1407   14.9259 H   0  0  0  0  0  0  0  0  0  0  0  0
   -2.7739   13.7160   14.0520 H   0  0  0  0  0  0  0  0  0  0  0  0
   -1.0967   12.0488   16.3375 H   0  0  0  0  0  0  0  0  0  0  0  0
  2  1  1  0  0  0
  2  3  1  0  0  0
  1 23  1  0  0  0
  1 19  1  0  0  0
 23 24  1  0  0  0
 19 20  2  0  0  0
 19 21  1  0  0  0
 21 22  1  0  0  0
 24 25  2  0  0  0
 24 29  1  0  0  0
 25 26  1  0  0  0
 26 27  2  0  0  0
 27 28  1  0  0  0
 28 29  2  0  0  0
 28 30  1  0  0  0
 30 31  1  0  0  0
 30 32  2  0  0  0
  3  6  1  0  0  0
  3  4  2  0  0  0
  6  7  1  0  0  0
  7  9  1  0  0  0
 12 13  1  0  0  0
 13 14  1  0  0  0
 13 18  2  0  0  0
 14 15  2  0  0  0
 15 16  1  0  0  0
 16 17  2  0  0  0
 16  9  1  0  0  0
 17 18  1  0  0  0
  9 10  2  0  0  0
  9 11  2  0  0  0
  2  5  1  0  0  0
 31 33  1  0  0  0
 31 34  1  0  0  0
 32 35  1  0  0  0
  7  8  1  0  0  0
M  END
> <minimizedAffinity>
-7.00686

$$$$
1V2W_ANH_T_800


 35 36  0  0  0  0  0  0  0  0999 V2000
    0.5668   18.1167   18.7546 C   0  0  0  0  0  0  0  0  0  0  0  0
   -0.6056   18.3672   17.8678 N   0  0  0  0  0  0  0  0  0  0  0  0
   -1.7937   18.8390   18.2711 C   0  0  0  0  0  0  0  0  0  0  0  0
   -2.1128   18.9529   19.4515 O   0  0  0  0  0  0  0  0  0  0  0  0
   -0.4984   18.1702   16.9092 H   0  0  0  0  0  0  0  0  0  0  0  0
   -2.7805   19.2364   17.1887 C   0  0  0  0  0  0  0  0  0  0  0  0
   -2.1680   19.8577   15.9832 N   0  0  0  0  0  0  0  0  0  0  0  0
   -2.5879   19.4061   15.1706 H   0  0  0  0  0  0  0  0  0  0  0  0
   -2.3076   21.5263   15.7459 S   0  0  0  0  0  0  0  0  0  0  0  0
   -2.3242   21.7517   14.1641 O   0  0  0  0  0  0  0  0  0  0  0  0
   -3.6539   21.8653   16.4815 O   0  0  0  0  0  0  0  0  0  0  0  0
    2.3681   24.3752   18.3447 C   0  0  0  0  0  0  0  0  0  0  0  0
    1.1931   23.6607   17.7792 C   0  0  0  0  0  0  0  0  0  0  0  0
    0.1458   23.1335   18.6130 C   0  0  0  0  0  0  0  0  0  0  0  0
   -0.9713   22.4526   18.0125 C   0  0  0  0  0  0  0  0  0  0  0  0
   -0.9947   22.3224   16.5738 C   0  0  0  0  0  0  0  0  0  0  0  0
    0.0501   22.8474   15.7603 C   0  0  0  0  0  0  0  0  0  0  0  0
    1.1306   23.5105   16.3656 C   0  0  0  0  0  0  0  0  0  0  0  0
    0.3094   17.1838   20.0342 C   0  0  0  0  0  0  0  0  0  0  0  0
    0.8335   17.5196   21.1258 O   0  0  0  0  0  0  0  0  0  0  0  0
   -0.5055   15.9968   19.8954 O   0  0  0  0  0  0  0  0  0  0  0  0
   -0.5350   15.0740   18.7403 C   0  0  0  0  0  0  0  0  0  0  0  0
    1.1276   19.4663   19.2127 C   0  0  0  0  0  0  0  0  0  0  0  0
    2.2384   20.0929   18.3733 C   0  0  0  0  0  0  0  0  0  0  0  0
    2.1630   19.9818   16.9617 C   0  0  0  0  0  0  0  0  0  0  0  0
    3.1650   20.5453   16.1276 C   0  0  0  0  0  0  0  0  0  0  0  0
    4.2605   21.2326   16.7124 C   0  0  0  0  0  0  0  0  0  0  0  0
    4.3988   21.3826   18.1644 C   0  0  0  0  0  0  0  0  0  0  0  0
    3.3524   20.7911   18.9780 C   0  0  0  0  0  0  0  0  0  0  0  0
    5.4908   22.0698   18.7210 C   0  0  0  0  0  0  0  0  0  0  0  0
    5.6116   22.4028   19.9878 N   0  0  0  0  0  0  0  0  0  0  0  0
    6.5448   22.4846   18.0304 N   0  0  0  0  0  0  0  0  0  0  0  0
    4.9047   22.1625   20.6295 H   0  0  0  0  0  0  0  0  0  0  0  0
    6.4088   22.8924   20.2942 H   0  0  0  0  0  0  0  0  0  0  0  0
    6.5999   22.3088   17.0633 H   0  0  0  0  0  0  0  0  0  0  0  0
  2  1  1  0  0  0
  2  3  1  0  0  0
  1 23  1  0  0  0
  1 19  1  0  0  0
 23 24  1  0  0  0
 19 20  2  0  0  0
 19 21  1  0  0  0
 21 22  1  0  0  0
 24 25  2  0  0  0
 24 29  1  0  0  0
 25 26  1  0  0  0
 26 27  2  0  0  0
 27 28  1  0  0  0
 28 29  2  0  0  0
 28 30  1  0  0  0
 30 31  1  0  0  0
 30 32  2  0  0  0
  3  6  1  0  0  0
  3  4  2  0  0  0
  6  7  1  0  0  0
  7  9  1  0  0  0
 12 13  1  0  0  0
 13 14  1  0  0  0
 13 18  2  0  0  0
 14 15  2  0  0  0
 15 16  1  0  0  0
 16 17  2  0  0  0
 16  9  1  0  0  0
 17 18  1  0  0  0
  9 10  2  0  0  0
  9 11  2  0  0  0
  2  5  1  0  0  0
 31 33  1  0  0  0
 31 34  1  0  0  0
 32 35  1  0  0  0
  7  8  1  0  0  0
M  END
> <minimizedAffinity>
-6.74551

$$$$
1V2W_ANH_T_800


 35 36  0  0  0  0  0  0  0  0999 V2000
   -2.1116   18.9045   18.5895 C   0  0  0  0  0  0  0  0  0  0  0  0
   -0.8264   19.1000   19.3199 N   0  0  0  0  0  0  0  0  0  0  0  0
   -0.7086   19.2856   20.6422 C   0  0  0  0  0  0  0  0  0  0  0  0
   -1.6638   19.4939   21.3854 O   0  0  0  0  0  0  0  0  0  0  0  0
    0.0022   19.0923   18.7883 H   0  0  0  0  0  0  0  0  0  0  0  0
    0.6932   19.2402   21.2220 C   0  0  0  0  0  0  0  0  0  0  0  0
    1.7873   19.2851   20.2144 N   0  0  0  0  0  0  0  0  0  0  0  0
    1.3510   19.1852   19.2978 H   0  0  0  0  0  0  0  0  0  0  0  0
    2.7907   20.6441   20.1366 S   0  0  0  0  0  0  0  0  0  0  0  0
    1.8968   21.8852   20.5989 O   0  0  0  0  0  0  0  0  0  0  0  0
    3.9593   20.2634   21.1153 O   0  0  0  0  0  0  0  0  0  0  0  0
    5.2630   21.2432   14.6356 C   0  0  0  0  0  0  0  0  0  0  0  0
    4.5954   21.0593   15.9515 C   0  0  0  0  0  0  0  0  0  0  0  0
    3.3599   20.3345   16.0866 C   0  0  0  0  0  0  0  0  0  0  0  0
    2.7581   20.1840   17.3855 C   0  0  0  0  0  0  0  0  0  0  0  0
    3.4289   20.7784   18.5188 C   0  0  0  0  0  0  0  0  0  0  0  0
    4.6508   21.4953   18.3703 C   0  0  0  0  0  0  0  0  0  0  0  0
    5.2231   21.6291   17.0943 C   0  0  0  0  0  0  0  0  0  0  0  0
   -3.1436   20.1325   18.6162 C   0  0  0  0  0  0  0  0  0  0  0  0
   -4.3286   19.9017   18.9648 O   0  0  0  0  0  0  0  0  0  0  0  0
   -2.6867   21.4525   18.2402 O   0  0  0  0  0  0  0  0  0  0  0  0
   -2.2111   21.8774   16.9061 C   0  0  0  0  0  0  0  0  0  0  0  0
   -2.7979   17.6504   19.1394 C   0  0  0  0  0  0  0  0  0  0  0  0
   -2.2041   16.2954   18.7618 C   0  0  0  0  0  0  0  0  0  0  0  0
   -1.4527   15.5918   19.7368 C   0  0  0  0  0  0  0  0  0  0  0  0
   -0.8768   14.3265   19.4457 C   0  0  0  0  0  0  0  0  0  0  0  0
   -1.0551   13.7531   18.1597 C   0  0  0  0  0  0  0  0  0  0  0  0
   -1.8199   14.4282   17.1064 C   0  0  0  0  0  0  0  0  0  0  0  0
   -2.3900   15.7187   17.4477 C   0  0  0  0  0  0  0  0  0  0  0  0
   -1.9857   13.8400   15.8412 C   0  0  0  0  0  0  0  0  0  0  0  0
   -2.5155   14.4322   14.7929 N   0  0  0  0  0  0  0  0  0  0  0  0
   -1.6357   12.5957   15.5427 N   0  0  0  0  0  0  0  0  0  0  0  0
   -2.8259   15.3642   14.8586 H   0  0  0  0  0  0  0  0  0  0  0  0
   -2.6018   13.9434   13.9427 H   0  0  0  0  0  0  0  0  0  0  0  0
   -1.2231   12.0224   16.2285 H   0  0  0  0  0  0  0  0  0  0  0  0
  2  1  1  0  0  0
  2  3  1  0  0  0
  1 23  1  0  0  0
  1 19  1  0  0  0
 23 24  1  0  0  0
 19 20  2  0  0  0
 19 21  1  0  0  0
 21 22  1  0  0  0
 24 25  2  0  0  0
 24 29  1  0  0  0
 25 26  1  0  0  0
 26 27  2  0  0  0
 27 28  1  0  0  0
 28 29  2  0  0  0
 28 30  1  0  0  0
 30 31  1  0  0  0
 30 32  2  0  0  0
  3  6  1  0  0  0
  3  4  2  0  0  0
  6  7  1  0  0  0
  7  9  1  0  0  0
 12 13  1  0  0  0
 13 14  1  0  0  0
 13 18  2  0  0  0
 14 15  2  0  0  0
 15 16  1  0  0  0
 16 17  2  0  0  0
 16  9  1  0  0  0
 17 18  1  0  0  0
  9 10  2  0  0  0
  9 11  2  0  0  0
  2  5  1  0  0  0
 31 33  1  0  0  0
 31 34  1  0  0  0
 32 35  1  0  0  0
  7  8  1  0  0  0
M  END
> <minimizedAffinity>
-6.68413

$$$$
1V2W_ANH_T_800


 35 36  0  0  0  0  0  0  0  0999 V2000
   -1.3943   16.5707   17.4865 C   0  0  0  0  0  0  0  0  0  0  0  0
   -2.3637   17.6117   17.0390 N   0  0  0  0  0  0  0  0  0  0  0  0
   -3.4618   17.9859   17.7106 C   0  0  0  0  0  0  0  0  0  0  0  0
   -3.8939   17.3865   18.6915 O   0  0  0  0  0  0  0  0  0  0  0  0
   -2.1826   18.0603   16.1815 H   0  0  0  0  0  0  0  0  0  0  0  0
   -4.1950   19.2138   17.2025 C   0  0  0  0  0  0  0  0  0  0  0  0
   -4.0787   20.4150   18.0730 N   0  0  0  0  0  0  0  0  0  0  0  0
   -4.2713   20.1101   19.0271 H   0  0  0  0  0  0  0  0  0  0  0  0
   -2.6222   21.2734   18.1151 S   0  0  0  0  0  0  0  0  0  0  0  0
   -1.7937   20.8087   16.8303 O   0  0  0  0  0  0  0  0  0  0  0  0
   -3.1050   22.7684   18.0917 O   0  0  0  0  0  0  0  0  0  0  0  0
    0.3212   20.4212   23.3441 C   0  0  0  0  0  0  0  0  0  0  0  0
   -0.4493   20.5713   22.0812 C   0  0  0  0  0  0  0  0  0  0  0  0
   -1.6206   19.7835   21.8028 C   0  0  0  0  0  0  0  0  0  0  0  0
   -2.3308   19.9718   20.5650 C   0  0  0  0  0  0  0  0  0  0  0  0
   -1.8293   20.9588   19.6366 C   0  0  0  0  0  0  0  0  0  0  0  0
   -0.6671   21.7305   19.9242 C   0  0  0  0  0  0  0  0  0  0  0  0
    0.0106   21.5331   21.1388 C   0  0  0  0  0  0  0  0  0  0  0  0
   -1.9149   15.0533   17.4675 C   0  0  0  0  0  0  0  0  0  0  0  0
   -2.8001   14.7422   16.6316 O   0  0  0  0  0  0  0  0  0  0  0  0
   -1.3596   14.1002   18.4033 O   0  0  0  0  0  0  0  0  0  0  0  0
   -0.1286   13.3004   18.2258 C   0  0  0  0  0  0  0  0  0  0  0  0
   -0.9141   16.9268   18.8966 C   0  0  0  0  0  0  0  0  0  0  0  0
    0.2891   17.8585   19.0203 C   0  0  0  0  0  0  0  0  0  0  0  0
    1.0894   17.7770   20.1880 C   0  0  0  0  0  0  0  0  0  0  0  0
    2.2224   18.6160   20.3600 C   0  0  0  0  0  0  0  0  0  0  0  0
    2.5632   19.5518   19.3487 C   0  0  0  0  0  0  0  0  0  0  0  0
    1.7777   19.6873   18.1180 C   0  0  0  0  0  0  0  0  0  0  0  0
    0.6287   18.8104   17.9846 C   0  0  0  0  0  0  0  0  0  0  0  0
    2.1356   20.6189   17.1289 C   0  0  0  0  0  0  0  0  0  0  0  0
    1.4145   20.9154   16.0695 N   0  0  0  0  0  0  0  0  0  0  0  0
    3.2637   21.3172   17.1317 N   0  0  0  0  0  0  0  0  0  0  0  0
    0.5451   20.4758   15.9271 H   0  0  0  0  0  0  0  0  0  0  0  0
    1.7440   21.5768   15.4191 H   0  0  0  0  0  0  0  0  0  0  0  0
    3.9109   21.2040   17.8648 H   0  0  0  0  0  0  0  0  0  0  0  0
  2  1  1  0  0  0
  2  3  1  0  0  0
  1 23  1  0  0  0
  1 19  1  0  0  0
 23 24  1  0  0  0
 19 20  2  0  0  0
 19 21  1  0  0  0
 21 22  1  0  0  0
 24 25  2  0  0  0
 24 29  1  0  0  0
 25 26  1  0  0  0
 26 27  2  0  0  0
 27 28  1  0  0  0
 28 29  2  0  0  0
 28 30  1  0  0  0
 30 31  1  0  0  0
 30 32  2  0  0  0
  3  6  1  0  0  0
  3  4  2  0  0  0
  6  7  1  0  0  0
  7  9  1  0  0  0
 12 13  1  0  0  0
 13 14  1  0  0  0
 13 18  2  0  0  0
 14 15  2  0  0  0
 15 16  1  0  0  0
 16 17  2  0  0  0
 16  9  1  0  0  0
 17 18  1  0  0  0
  9 10  2  0  0  0
  9 11  2  0  0  0
  2  5  1  0  0  0
 31 33  1  0  0  0
 31 34  1  0  0  0
 32 35  1  0  0  0
  7  8  1  0  0  0
M  END
> <minimizedAffinity>
-6.64021

$$$$
1V2W_ANH_T_800


 35 36  0  0  0  0  0  0  0  0999 V2000
    0.1963   18.4351   20.2306 C   0  0  0  0  0  0  0  0  0  0  0  0
    1.4781   19.0634   19.7995 N   0  0  0  0  0  0  0  0  0  0  0  0
    1.6094   20.3153   19.3387 C   0  0  0  0  0  0  0  0  0  0  0  0
    0.6571   21.0349   19.0499 O   0  0  0  0  0  0  0  0  0  0  0  0
    2.2934   18.5147   19.8581 H   0  0  0  0  0  0  0  0  0  0  0  0
    3.0226   20.8410   19.1655 C   0  0  0  0  0  0  0  0  0  0  0  0
    3.5528   20.7606   17.7775 N   0  0  0  0  0  0  0  0  0  0  0  0
    2.9198   20.1574   17.2523 H   0  0  0  0  0  0  0  0  0  0  0  0
    3.7420   22.1791   16.8763 S   0  0  0  0  0  0  0  0  0  0  0  0
    2.2677   22.7216   16.5843 O   0  0  0  0  0  0  0  0  0  0  0  0
    4.6061   23.0789   17.8316 O   0  0  0  0  0  0  0  0  0  0  0  0
    7.0431   20.6382   12.0327 C   0  0  0  0  0  0  0  0  0  0  0  0
    6.2151   21.0838   13.1846 C   0  0  0  0  0  0  0  0  0  0  0  0
    5.4675   22.3129   13.1579 C   0  0  0  0  0  0  0  0  0  0  0  0
    4.6795   22.6949   14.3002 C   0  0  0  0  0  0  0  0  0  0  0  0
    4.6727   21.8155   15.4466 C   0  0  0  0  0  0  0  0  0  0  0  0
    5.4193   20.6025   15.4603 C   0  0  0  0  0  0  0  0  0  0  0  0
    6.1804   20.2464   14.3345 C   0  0  0  0  0  0  0  0  0  0  0  0
   -0.2711   18.7252   21.7377 C   0  0  0  0  0  0  0  0  0  0  0  0
   -0.0373   17.8496   22.6082 O   0  0  0  0  0  0  0  0  0  0  0  0
   -0.9423   19.9689   22.0463 O   0  0  0  0  0  0  0  0  0  0  0  0
   -2.3136   20.3558   21.6511 C   0  0  0  0  0  0  0  0  0  0  0  0
    0.2977   16.9228   20.0109 C   0  0  0  0  0  0  0  0  0  0  0  0
   -0.7020   16.2780   19.0538 C   0  0  0  0  0  0  0  0  0  0  0  0
   -1.9544   16.9129   18.8565 C   0  0  0  0  0  0  0  0  0  0  0  0
   -2.9248   16.3623   17.9776 C   0  0  0  0  0  0  0  0  0  0  0  0
   -2.6398   15.1579   17.2827 C   0  0  0  0  0  0  0  0  0  0  0  0
   -1.3651   14.4510   17.4423 C   0  0  0  0  0  0  0  0  0  0  0  0
   -0.4035   15.0492   18.3502 C   0  0  0  0  0  0  0  0  0  0  0  0
   -1.1038   13.2613   16.7418 C   0  0  0  0  0  0  0  0  0  0  0  0
   -0.0734   12.4702   16.9484 N   0  0  0  0  0  0  0  0  0  0  0  0
   -1.8649   12.7854   15.7650 N   0  0  0  0  0  0  0  0  0  0  0  0
    0.5853   12.6916   17.6458 H   0  0  0  0  0  0  0  0  0  0  0  0
    0.0391   11.6566   16.4056 H   0  0  0  0  0  0  0  0  0  0  0  0
   -2.6777   13.2701   15.4936 H   0  0  0  0  0  0  0  0  0  0  0  0
  2  1  1  0  0  0
  2  3  1  0  0  0
  1 23  1  0  0  0
  1 19  1  0  0  0
 23 24  1  0  0  0
 19 20  2  0  0  0
 19 21  1  0  0  0
 21 22  1  0  0  0
 24 25  2  0  0  0
 24 29  1  0  0  0
 25 26  1  0  0  0
 26 27  2  0  0  0
 27 28  1  0  0  0
 28 29  2  0  0  0
 28 30  1  0  0  0
 30 31  1  0  0  0
 30 32  2  0  0  0
  3  6  1  0  0  0
  3  4  2  0  0  0
  6  7  1  0  0  0
  7  9  1  0  0  0
 12 13  1  0  0  0
 13 14  1  0  0  0
 13 18  2  0  0  0
 14 15  2  0  0  0
 15 16  1  0  0  0
 16 17  2  0  0  0
 16  9  1  0  0  0
 17 18  1  0  0  0
  9 10  2  0  0  0
  9 11  2  0  0  0
  2  5  1  0  0  0
 31 33  1  0  0  0
 31 34  1  0  0  0
 32 35  1  0  0  0
  7  8  1  0  0  0
M  END
> <minimizedAffinity>
-6.58639

$$$$
