2C97_JCL_A_701


 22 22  0  0  0  0  0  0  0  0999 V2000
  -23.1311   -2.4771    4.6578 N   0  0  0  0  0  0  0  0  0  0  0  0
  -22.2353   -0.5522    3.6365 N   0  0  0  0  0  0  0  0  0  0  0  0
  -22.8264    0.2123    4.5435 C   0  0  0  0  0  0  0  0  0  0  0  0
  -22.5866    1.9319    4.3803 Cl  0  0  0  0  0  0  0  0  0  0  0  0
  -23.6557   -0.3187    5.6438 C   0  0  0  0  0  0  0  0  0  0  0  0
  -22.3850   -1.8725    3.6949 C   0  0  0  0  0  0  0  0  0  0  0  0
  -23.7866   -1.7953    5.6356 C   0  0  0  0  0  0  0  0  0  0  0  0
  -21.7888   -2.5271    2.8185 O   0  0  0  0  0  0  0  0  0  0  0  0
  -24.4784   -2.3748    6.5241 O   0  0  0  0  0  0  0  0  0  0  0  0
  -23.2004   -3.4591    4.6466 H   0  0  0  0  0  0  0  0  0  0  0  0
  -21.6896   -0.1458    2.9249 H   0  0  0  0  0  0  0  0  0  0  0  0
  -24.3739    0.5529    6.6599 C   0  0  0  0  0  0  0  0  0  0  0  0
  -23.9918    0.4045    8.1369 C   0  0  0  0  0  0  0  0  0  0  0  0
  -25.2893    0.4619    8.9430 C   0  0  0  0  0  0  0  0  0  0  0  0
  -26.3786    1.2796    8.3109 C   0  0  0  0  0  0  0  0  0  0  0  0
  -27.2336    2.1681    9.0886 O   0  0  0  0  0  0  0  0  0  0  0  0
  -27.4698    3.7505    8.8092 P   0  0  0  0  0  0  0  0  0  0  0  0
  -26.0881    4.1564    8.3390 O   0  0  0  0  0  0  0  0  0  0  0  0
  -28.5707    3.7779    7.7729 O   0  0  0  0  0  0  0  0  0  0  0  0
  -27.8122    4.4180   10.1209 O   0  0  0  0  0  0  0  0  0  0  0  0
  -25.8909    3.7165    7.4972 H   0  0  0  0  0  0  0  0  0  0  0  0
  -28.2676    3.3305    6.9674 H   0  0  0  0  0  0  0  0  0  0  0  0
  1  6  1  0  0  0
  1  7  1  0  0  0
  2  3  1  0  0  0
  2  6  1  0  0  0
  3  4  1  0  0  0
  3  5  2  0  0  0
  5 12  1  0  0  0
  5  7  1  0  0  0
 12 13  1  0  0  0
  6  8  2  0  0  0
  7  9  2  0  0  0
 13 14  1  0  0  0
 14 15  1  0  0  0
 15 16  1  0  0  0
 16 17  1  0  0  0
 17 18  1  0  0  0
 17 19  1  0  0  0
 17 20  2  0  0  0
  1 10  1  0  0  0
  2 11  1  0  0  0
 18 21  1  0  0  0
 19 22  1  0  0  0
M  END
> <minimizedAffinity>
-8.60487

$$$$
2C97_JCL_A_701


 22 22  0  0  0  0  0  0  0  0999 V2000
  -21.6775   -0.4355    3.6638 N   0  0  0  0  0  0  0  0  0  0  0  0
  -22.9124   -2.3386    4.2992 N   0  0  0  0  0  0  0  0  0  0  0  0
  -23.3121   -1.7197    5.4009 C   0  0  0  0  0  0  0  0  0  0  0  0
  -24.3492   -2.6306    6.4666 Cl  0  0  0  0  0  0  0  0  0  0  0  0
  -22.9206   -0.3394    5.7499 C   0  0  0  0  0  0  0  0  0  0  0  0
  -22.1109   -1.7061    3.4469 C   0  0  0  0  0  0  0  0  0  0  0  0
  -22.0176    0.2949    4.7600 C   0  0  0  0  0  0  0  0  0  0  0  0
  -21.7885   -2.3446    2.4269 O   0  0  0  0  0  0  0  0  0  0  0  0
  -21.6034    1.4769    4.9467 O   0  0  0  0  0  0  0  0  0  0  0  0
  -21.0869   -0.0228    2.9928 H   0  0  0  0  0  0  0  0  0  0  0  0
  -23.2066   -3.2595    4.1131 H   0  0  0  0  0  0  0  0  0  0  0  0
  -23.3368    0.3605    7.0323 C   0  0  0  0  0  0  0  0  0  0  0  0
  -24.6701    1.1167    7.0423 C   0  0  0  0  0  0  0  0  0  0  0  0
  -25.5350    0.4850    8.1330 C   0  0  0  0  0  0  0  0  0  0  0  0
  -25.9072    1.4174    9.2496 C   0  0  0  0  0  0  0  0  0  0  0  0
  -27.1042    2.2482    9.2015 O   0  0  0  0  0  0  0  0  0  0  0  0
  -27.1745    3.7919    8.7016 P   0  0  0  0  0  0  0  0  0  0  0  0
  -27.6369    4.4724    9.9736 O   0  0  0  0  0  0  0  0  0  0  0  0
  -25.7636    4.0936    8.2491 O   0  0  0  0  0  0  0  0  0  0  0  0
  -28.2261    3.8933    7.6213 O   0  0  0  0  0  0  0  0  0  0  0  0
  -26.9470    4.3945   10.6511 H   0  0  0  0  0  0  0  0  0  0  0  0
  -25.1571    4.0055    9.0009 H   0  0  0  0  0  0  0  0  0  0  0  0
  1  6  1  0  0  0
  1  7  1  0  0  0
  2  3  1  0  0  0
  2  6  1  0  0  0
  3  4  1  0  0  0
  3  5  2  0  0  0
  5 12  1  0  0  0
  5  7  1  0  0  0
 12 13  1  0  0  0
  6  8  2  0  0  0
  7  9  2  0  0  0
 13 14  1  0  0  0
 14 15  1  0  0  0
 15 16  1  0  0  0
 16 17  1  0  0  0
 17 18  1  0  0  0
 17 19  1  0  0  0
 17 20  2  0  0  0
  1 10  1  0  0  0
  2 11  1  0  0  0
 18 21  1  0  0  0
 19 22  1  0  0  0
M  END
> <minimizedAffinity>
-8.51095

$$$$
2C97_JCL_A_701


 22 22  0  0  0  0  0  0  0  0999 V2000
  -23.2935   -2.5533    4.9209 N   0  0  0  0  0  0  0  0  0  0  0  0
  -23.9336   -0.8488    6.4162 N   0  0  0  0  0  0  0  0  0  0  0  0
  -23.1346    0.0062    5.7941 C   0  0  0  0  0  0  0  0  0  0  0  0
  -23.0856    1.6266    6.4367 Cl  0  0  0  0  0  0  0  0  0  0  0  0
  -22.3093   -0.3513    4.6230 C   0  0  0  0  0  0  0  0  0  0  0  0
  -24.0113   -2.1047    5.9854 C   0  0  0  0  0  0  0  0  0  0  0  0
  -22.4390   -1.7690    4.2099 C   0  0  0  0  0  0  0  0  0  0  0  0
  -24.7932   -2.8469    6.6097 O   0  0  0  0  0  0  0  0  0  0  0  0
  -21.7772   -2.2039    3.2217 O   0  0  0  0  0  0  0  0  0  0  0  0
  -23.3976   -3.4943    4.6509 H   0  0  0  0  0  0  0  0  0  0  0  0
  -24.4655   -0.5566    7.1914 H   0  0  0  0  0  0  0  0  0  0  0  0
  -21.3567    0.6100    3.9328 C   0  0  0  0  0  0  0  0  0  0  0  0
  -19.9201    0.7051    4.4588 C   0  0  0  0  0  0  0  0  0  0  0  0
  -19.0912    1.3947    3.3752 C   0  0  0  0  0  0  0  0  0  0  0  0
  -19.8414    2.4224    2.5780 C   0  0  0  0  0  0  0  0  0  0  0  0
  -19.4496    2.7925    1.2234 O   0  0  0  0  0  0  0  0  0  0  0  0
  -18.5737    4.0949    0.8059 P   0  0  0  0  0  0  0  0  0  0  0  0
  -17.2118    3.6911    1.3322 O   0  0  0  0  0  0  0  0  0  0  0  0
  -18.7220    4.1680   -0.6972 O   0  0  0  0  0  0  0  0  0  0  0  0
  -19.1117    5.2896    1.5585 O   0  0  0  0  0  0  0  0  0  0  0  0
  -16.8874    2.9240    0.8350 H   0  0  0  0  0  0  0  0  0  0  0  0
  -18.3528    3.3655   -1.0979 H   0  0  0  0  0  0  0  0  0  0  0  0
  1  6  1  0  0  0
  1  7  1  0  0  0
  2  3  1  0  0  0
  2  6  1  0  0  0
  3  4  1  0  0  0
  3  5  2  0  0  0
  5 12  1  0  0  0
  5  7  1  0  0  0
 12 13  1  0  0  0
  6  8  2  0  0  0
  7  9  2  0  0  0
 13 14  1  0  0  0
 14 15  1  0  0  0
 15 16  1  0  0  0
 16 17  1  0  0  0
 17 18  1  0  0  0
 17 19  1  0  0  0
 17 20  2  0  0  0
  1 10  1  0  0  0
  2 11  1  0  0  0
 18 21  1  0  0  0
 19 22  1  0  0  0
M  END
> <minimizedAffinity>
-8.17484

$$$$
2C97_JCL_A_701


 22 22  0  0  0  0  0  0  0  0999 V2000
  -24.0412   -0.8897    6.8597 N   0  0  0  0  0  0  0  0  0  0  0  0
  -23.3891   -2.3392    5.1206 N   0  0  0  0  0  0  0  0  0  0  0  0
  -22.5826   -1.4058    4.6361 C   0  0  0  0  0  0  0  0  0  0  0  0
  -21.6962   -1.8227    3.1933 Cl  0  0  0  0  0  0  0  0  0  0  0  0
  -22.4174   -0.0717    5.2472 C   0  0  0  0  0  0  0  0  0  0  0  0
  -24.1036   -2.0845    6.2132 C   0  0  0  0  0  0  0  0  0  0  0  0
  -23.2543    0.1423    6.4519 C   0  0  0  0  0  0  0  0  0  0  0  0
  -24.8279   -3.0134    6.6186 O   0  0  0  0  0  0  0  0  0  0  0  0
  -23.2096    1.2491    7.0656 O   0  0  0  0  0  0  0  0  0  0  0  0
  -24.5943   -0.7652    7.6647 H   0  0  0  0  0  0  0  0  0  0  0  0
  -23.4589   -3.2144    4.6752 H   0  0  0  0  0  0  0  0  0  0  0  0
  -21.5303    1.0193    4.6723 C   0  0  0  0  0  0  0  0  0  0  0  0
  -20.0114    0.8549    4.7960 C   0  0  0  0  0  0  0  0  0  0  0  0
  -19.4194    1.1062    3.4092 C   0  0  0  0  0  0  0  0  0  0  0  0
  -19.8202    2.4138    2.7894 C   0  0  0  0  0  0  0  0  0  0  0  0
  -19.4936    2.7518    1.4093 O   0  0  0  0  0  0  0  0  0  0  0  0
  -18.6434    4.0461    0.9198 P   0  0  0  0  0  0  0  0  0  0  0  0
  -18.9296    4.0171   -0.5675 O   0  0  0  0  0  0  0  0  0  0  0  0
  -19.2435    5.1936    1.7005 O   0  0  0  0  0  0  0  0  0  0  0  0
  -17.1807    3.7843    1.1941 O   0  0  0  0  0  0  0  0  0  0  0  0
  -19.8725    4.1873   -0.7187 H   0  0  0  0  0  0  0  0  0  0  0  0
  -20.1794    5.2907    1.4646 H   0  0  0  0  0  0  0  0  0  0  0  0
  1  6  1  0  0  0
  1  7  1  0  0  0
  2  3  1  0  0  0
  2  6  1  0  0  0
  3  4  1  0  0  0
  3  5  2  0  0  0
  5 12  1  0  0  0
  5  7  1  0  0  0
 12 13  1  0  0  0
  6  8  2  0  0  0
  7  9  2  0  0  0
 13 14  1  0  0  0
 14 15  1  0  0  0
 15 16  1  0  0  0
 16 17  1  0  0  0
 17 18  1  0  0  0
 17 19  1  0  0  0
 17 20  2  0  0  0
  1 10  1  0  0  0
  2 11  1  0  0  0
 18 21  1  0  0  0
 19 22  1  0  0  0
M  END
> <minimizedAffinity>
-7.79691

$$$$
2C97_JCL_A_701


 22 22  0  0  0  0  0  0  0  0999 V2000
  -24.3643    1.5824    7.5943 N   0  0  0  0  0  0  0  0  0  0  0  0
  -24.3308   -0.7429    7.2169 N   0  0  0  0  0  0  0  0  0  0  0  0
  -23.5255   -0.5696    6.1786 C   0  0  0  0  0  0  0  0  0  0  0  0
  -23.0511   -2.0107    5.3189 Cl  0  0  0  0  0  0  0  0  0  0  0  0
  -23.0377    0.7517    5.7351 C   0  0  0  0  0  0  0  0  0  0  0  0
  -24.7407    0.3147    7.9115 C   0  0  0  0  0  0  0  0  0  0  0  0
  -23.5466    1.8814    6.5490 C   0  0  0  0  0  0  0  0  0  0  0  0
  -25.4836    0.0738    8.8821 O   0  0  0  0  0  0  0  0  0  0  0  0
  -23.2072    3.0685    6.2670 O   0  0  0  0  0  0  0  0  0  0  0  0
  -24.7011    2.3221    8.1499 H   0  0  0  0  0  0  0  0  0  0  0  0
  -24.6235   -1.6476    7.4720 H   0  0  0  0  0  0  0  0  0  0  0  0
  -22.1520    0.9632    4.5192 C   0  0  0  0  0  0  0  0  0  0  0  0
  -20.6334    0.9836    4.7268 C   0  0  0  0  0  0  0  0  0  0  0  0
  -19.9977    1.2309    3.3588 C   0  0  0  0  0  0  0  0  0  0  0  0
  -20.1509    2.6340    2.8463 C   0  0  0  0  0  0  0  0  0  0  0  0
  -19.7998    3.0048    1.4808 O   0  0  0  0  0  0  0  0  0  0  0  0
  -18.6353    4.0500    1.0455 P   0  0  0  0  0  0  0  0  0  0  0  0
  -19.1761    5.3309    1.6472 O   0  0  0  0  0  0  0  0  0  0  0  0
  -17.3828    3.4842    1.6760 O   0  0  0  0  0  0  0  0  0  0  0  0
  -18.6095    4.1302   -0.4631 O   0  0  0  0  0  0  0  0  0  0  0  0
  -19.1831    5.2560    2.6143 H   0  0  0  0  0  0  0  0  0  0  0  0
  -17.4848    3.4690    2.6405 H   0  0  0  0  0  0  0  0  0  0  0  0
  1  6  1  0  0  0
  1  7  1  0  0  0
  2  3  1  0  0  0
  2  6  1  0  0  0
  3  4  1  0  0  0
  3  5  2  0  0  0
  5 12  1  0  0  0
  5  7  1  0  0  0
 12 13  1  0  0  0
  6  8  2  0  0  0
  7  9  2  0  0  0
 13 14  1  0  0  0
 14 15  1  0  0  0
 15 16  1  0  0  0
 16 17  1  0  0  0
 17 18  1  0  0  0
 17 19  1  0  0  0
 17 20  2  0  0  0
  1 10  1  0  0  0
  2 11  1  0  0  0
 18 21  1  0  0  0
 19 22  1  0  0  0
M  END
> <minimizedAffinity>
-7.62092

$$$$
2C97_JCL_A_701


 22 22  0  0  0  0  0  0  0  0999 V2000
  -24.2603    1.4917    7.7581 N   0  0  0  0  0  0  0  0  0  0  0  0
  -24.3827   -0.7748    7.1269 N   0  0  0  0  0  0  0  0  0  0  0  0
  -23.6797   -0.5153    6.0336 C   0  0  0  0  0  0  0  0  0  0  0  0
  -23.3687   -1.8660    4.9755 Cl  0  0  0  0  0  0  0  0  0  0  0  0
  -23.1738    0.8282    5.6879 C   0  0  0  0  0  0  0  0  0  0  0  0
  -24.6657    0.2115    7.9730 C   0  0  0  0  0  0  0  0  0  0  0  0
  -23.5394    1.8764    6.6704 C   0  0  0  0  0  0  0  0  0  0  0  0
  -25.3169   -0.1098    8.9852 O   0  0  0  0  0  0  0  0  0  0  0  0
  -23.1713    3.0739    6.4855 O   0  0  0  0  0  0  0  0  0  0  0  0
  -24.5009    2.1756    8.4242 H   0  0  0  0  0  0  0  0  0  0  0  0
  -24.6930   -1.6908    7.3112 H   0  0  0  0  0  0  0  0  0  0  0  0
  -22.4072    1.1428    4.4147 C   0  0  0  0  0  0  0  0  0  0  0  0
  -23.1105    1.9727    3.3348 C   0  0  0  0  0  0  0  0  0  0  0  0
  -22.0848    2.2339    2.2319 C   0  0  0  0  0  0  0  0  0  0  0  0
  -21.0152    3.2219    2.5986 C   0  0  0  0  0  0  0  0  0  0  0  0
  -19.6149    3.0165    2.2485 O   0  0  0  0  0  0  0  0  0  0  0  0
  -18.6611    1.8201    2.7934 P   0  0  0  0  0  0  0  0  0  0  0  0
  -19.0856    0.6907    1.8774 O   0  0  0  0  0  0  0  0  0  0  0  0
  -17.2596    2.3545    2.6013 O   0  0  0  0  0  0  0  0  0  0  0  0
  -19.0406    1.5260    4.2261 O   0  0  0  0  0  0  0  0  0  0  0  0
  -18.8321    0.9015    0.9652 H   0  0  0  0  0  0  0  0  0  0  0  0
  -17.1011    2.5147    1.6578 H   0  0  0  0  0  0  0  0  0  0  0  0
  1  6  1  0  0  0
  1  7  1  0  0  0
  2  3  1  0  0  0
  2  6  1  0  0  0
  3  4  1  0  0  0
  3  5  2  0  0  0
  5 12  1  0  0  0
  5  7  1  0  0  0
 12 13  1  0  0  0
  6  8  2  0  0  0
  7  9  2  0  0  0
 13 14  1  0  0  0
 14 15  1  0  0  0
 15 16  1  0  0  0
 16 17  1  0  0  0
 17 18  1  0  0  0
 17 19  1  0  0  0
 17 20  2  0  0  0
  1 10  1  0  0  0
  2 11  1  0  0  0
 18 21  1  0  0  0
 19 22  1  0  0  0
M  END
> <minimizedAffinity>
-7.38336

$$$$
2C97_JCL_A_701


 22 22  0  0  0  0  0  0  0  0999 V2000
  -22.2452   -0.8557    2.5228 N   0  0  0  0  0  0  0  0  0  0  0  0
  -22.5221    1.4839    2.5445 N   0  0  0  0  0  0  0  0  0  0  0  0
  -22.7080    1.4564    3.8565 C   0  0  0  0  0  0  0  0  0  0  0  0
  -23.0149    2.9908    4.6263 Cl  0  0  0  0  0  0  0  0  0  0  0  0
  -22.6722    0.2185    4.6606 C   0  0  0  0  0  0  0  0  0  0  0  0
  -22.2938    0.3479    1.8916 C   0  0  0  0  0  0  0  0  0  0  0  0
  -22.4260   -1.0064    3.8627 C   0  0  0  0  0  0  0  0  0  0  0  0
  -22.1142    0.4528    0.6633 O   0  0  0  0  0  0  0  0  0  0  0  0
  -22.3788   -2.1356    4.4340 O   0  0  0  0  0  0  0  0  0  0  0  0
  -22.0702   -1.6596    1.9821 H   0  0  0  0  0  0  0  0  0  0  0  0
  -22.5528    2.3387    2.0570 H   0  0  0  0  0  0  0  0  0  0  0  0
  -22.9296    0.1727    6.1571 C   0  0  0  0  0  0  0  0  0  0  0  0
  -24.3811    0.0613    6.6370 C   0  0  0  0  0  0  0  0  0  0  0  0
  -24.7040    1.3516    7.3904 C   0  0  0  0  0  0  0  0  0  0  0  0
  -25.4805    1.1527    8.6601 C   0  0  0  0  0  0  0  0  0  0  0  0
  -25.9746    2.2727    9.4519 O   0  0  0  0  0  0  0  0  0  0  0  0
  -27.0558    3.3822    8.9643 P   0  0  0  0  0  0  0  0  0  0  0  0
  -27.4856    3.9535   10.2999 O   0  0  0  0  0  0  0  0  0  0  0  0
  -26.2580    4.2981    8.0635 O   0  0  0  0  0  0  0  0  0  0  0  0
  -28.2013    2.6639    8.2897 O   0  0  0  0  0  0  0  0  0  0  0  0
  -26.7354    4.4089   10.7132 H   0  0  0  0  0  0  0  0  0  0  0  0
  -25.5473    4.7156    8.5748 H   0  0  0  0  0  0  0  0  0  0  0  0
  1  6  1  0  0  0
  1  7  1  0  0  0
  2  3  1  0  0  0
  2  6  1  0  0  0
  3  4  1  0  0  0
  3  5  2  0  0  0
  5 12  1  0  0  0
  5  7  1  0  0  0
 12 13  1  0  0  0
  6  8  2  0  0  0
  7  9  2  0  0  0
 13 14  1  0  0  0
 14 15  1  0  0  0
 15 16  1  0  0  0
 16 17  1  0  0  0
 17 18  1  0  0  0
 17 19  1  0  0  0
 17 20  2  0  0  0
  1 10  1  0  0  0
  2 11  1  0  0  0
 18 21  1  0  0  0
 19 22  1  0  0  0
M  END
> <minimizedAffinity>
-7.23180

$$$$
2C97_JCL_A_701


 22 22  0  0  0  0  0  0  0  0999 V2000
  -23.3975   -2.7005    5.1731 N   0  0  0  0  0  0  0  0  0  0  0  0
  -24.2200   -1.2117    6.8033 N   0  0  0  0  0  0  0  0  0  0  0  0
  -23.4687   -0.2403    6.3048 C   0  0  0  0  0  0  0  0  0  0  0  0
  -23.5685    1.3041    7.1084 Cl  0  0  0  0  0  0  0  0  0  0  0  0
  -22.5777   -0.4129    5.1400 C   0  0  0  0  0  0  0  0  0  0  0  0
  -24.1847   -2.4187    6.2456 C   0  0  0  0  0  0  0  0  0  0  0  0
  -22.5823   -1.7860    4.5815 C   0  0  0  0  0  0  0  0  0  0  0  0
  -24.9279   -3.2771    6.7582 O   0  0  0  0  0  0  0  0  0  0  0  0
  -21.8545   -2.0664    3.5838 O   0  0  0  0  0  0  0  0  0  0  0  0
  -23.4186   -3.6137    4.8057 H   0  0  0  0  0  0  0  0  0  0  0  0
  -24.7998   -1.0412    7.5805 H   0  0  0  0  0  0  0  0  0  0  0  0
  -21.6793    0.6823    4.5912 C   0  0  0  0  0  0  0  0  0  0  0  0
  -20.1730    0.4092    4.5136 C   0  0  0  0  0  0  0  0  0  0  0  0
  -19.5006    1.7206    4.1076 C   0  0  0  0  0  0  0  0  0  0  0  0
  -18.8180    1.6817    2.7707 C   0  0  0  0  0  0  0  0  0  0  0  0
  -19.2623    0.8013    1.6969 O   0  0  0  0  0  0  0  0  0  0  0  0
  -20.6223    0.9710    0.8254 P   0  0  0  0  0  0  0  0  0  0  0  0
  -21.3497   -0.3042    1.1990 O   0  0  0  0  0  0  0  0  0  0  0  0
  -21.2218    2.2634    1.3323 O   0  0  0  0  0  0  0  0  0  0  0  0
  -20.2502    0.9720   -0.6391 O   0  0  0  0  0  0  0  0  0  0  0  0
  -21.5779   -0.2820    2.1415 H   0  0  0  0  0  0  0  0  0  0  0  0
  -21.4296    2.1753    2.2757 H   0  0  0  0  0  0  0  0  0  0  0  0
  1  6  1  0  0  0
  1  7  1  0  0  0
  2  3  1  0  0  0
  2  6  1  0  0  0
  3  4  1  0  0  0
  3  5  2  0  0  0
  5 12  1  0  0  0
  5  7  1  0  0  0
 12 13  1  0  0  0
  6  8  2  0  0  0
  7  9  2  0  0  0
 13 14  1  0  0  0
 14 15  1  0  0  0
 15 16  1  0  0  0
 16 17  1  0  0  0
 17 18  1  0  0  0
 17 19  1  0  0  0
 17 20  2  0  0  0
  1 10  1  0  0  0
  2 11  1  0  0  0
 18 21  1  0  0  0
 19 22  1  0  0  0
M  END
> <minimizedAffinity>
-7.08271

$$$$
2C97_JCL_A_701


 22 22  0  0  0  0  0  0  0  0999 V2000
  -22.6514    3.0371    1.9531 N   0  0  0  0  0  0  0  0  0  0  0  0
  -22.9671    3.8470    4.1429 N   0  0  0  0  0  0  0  0  0  0  0  0
  -22.9869    2.6055    4.6064 C   0  0  0  0  0  0  0  0  0  0  0  0
  -23.2237    2.4253    6.3247 Cl  0  0  0  0  0  0  0  0  0  0  0  0
  -22.8277    1.4120    3.7516 C   0  0  0  0  0  0  0  0  0  0  0  0
  -22.8011    4.0570    2.8401 C   0  0  0  0  0  0  0  0  0  0  0  0
  -22.6604    1.7249    2.3123 C   0  0  0  0  0  0  0  0  0  0  0  0
  -22.7785    5.2493    2.4795 O   0  0  0  0  0  0  0  0  0  0  0  0
  -22.5209    0.7875    1.4723 O   0  0  0  0  0  0  0  0  0  0  0  0
  -22.5304    3.2598    1.0018 H   0  0  0  0  0  0  0  0  0  0  0  0
  -23.0746    4.6079    4.7582 H   0  0  0  0  0  0  0  0  0  0  0  0
  -22.8950   -0.0150    4.2682 C   0  0  0  0  0  0  0  0  0  0  0  0
  -21.6009   -0.8361    4.2919 C   0  0  0  0  0  0  0  0  0  0  0  0
  -20.6495   -0.1445    5.2684 C   0  0  0  0  0  0  0  0  0  0  0  0
  -19.3753    0.3524    4.6487 C   0  0  0  0  0  0  0  0  0  0  0  0
  -19.2578    1.6900    4.0808 O   0  0  0  0  0  0  0  0  0  0  0  0
  -18.7945    2.0456    2.5653 P   0  0  0  0  0  0  0  0  0  0  0  0
  -19.2417    0.7933    1.8396 O   0  0  0  0  0  0  0  0  0  0  0  0
  -19.5462    3.3175    2.2429 O   0  0  0  0  0  0  0  0  0  0  0  0
  -17.2890    2.1726    2.5469 O   0  0  0  0  0  0  0  0  0  0  0  0
  -20.2096    0.7334    1.8645 H   0  0  0  0  0  0  0  0  0  0  0  0
  -20.5004    3.1466    2.2770 H   0  0  0  0  0  0  0  0  0  0  0  0
  1  6  1  0  0  0
  1  7  1  0  0  0
  2  3  1  0  0  0
  2  6  1  0  0  0
  3  4  1  0  0  0
  3  5  2  0  0  0
  5 12  1  0  0  0
  5  7  1  0  0  0
 12 13  1  0  0  0
  6  8  2  0  0  0
  7  9  2  0  0  0
 13 14  1  0  0  0
 14 15  1  0  0  0
 15 16  1  0  0  0
 16 17  1  0  0  0
 17 18  1  0  0  0
 17 19  1  0  0  0
 17 20  2  0  0  0
  1 10  1  0  0  0
  2 11  1  0  0  0
 18 21  1  0  0  0
 19 22  1  0  0  0
M  END
> <minimizedAffinity>
-6.91441

$$$$
2C97_JCL_A_701


 22 22  0  0  0  0  0  0  0  0999 V2000
  -18.1393    3.3020    1.8036 N   0  0  0  0  0  0  0  0  0  0  0  0
  -19.7657    3.8225    0.1804 N   0  0  0  0  0  0  0  0  0  0  0  0
  -20.5613    2.8801    0.6656 C   0  0  0  0  0  0  0  0  0  0  0  0
  -22.0931    2.6704   -0.1410 Cl  0  0  0  0  0  0  0  0  0  0  0  0
  -20.2087    2.0276    1.8186 C   0  0  0  0  0  0  0  0  0  0  0  0
  -18.5775    4.0291    0.7411 C   0  0  0  0  0  0  0  0  0  0  0  0
  -18.8660    2.3075    2.3812 C   0  0  0  0  0  0  0  0  0  0  0  0
  -17.8908    4.9404    0.2412 O   0  0  0  0  0  0  0  0  0  0  0  0
  -18.4416    1.6393    3.3697 O   0  0  0  0  0  0  0  0  0  0  0  0
  -17.2502    3.5059    2.1738 H   0  0  0  0  0  0  0  0  0  0  0  0
  -20.0521    4.3655   -0.5893 H   0  0  0  0  0  0  0  0  0  0  0  0
  -21.0950    0.9150    2.3519 C   0  0  0  0  0  0  0  0  0  0  0  0
  -22.1240    1.2666    3.4322 C   0  0  0  0  0  0  0  0  0  0  0  0
  -22.6213   -0.0525    4.0231 C   0  0  0  0  0  0  0  0  0  0  0  0
  -23.2702    0.0753    5.3712 C   0  0  0  0  0  0  0  0  0  0  0  0
  -23.9824    1.2802    5.7794 O   0  0  0  0  0  0  0  0  0  0  0  0
  -24.0521    1.8827    7.2860 P   0  0  0  0  0  0  0  0  0  0  0  0
  -23.6466    0.6640    8.0891 O   0  0  0  0  0  0  0  0  0  0  0  0
  -23.0718    3.0338    7.2645 O   0  0  0  0  0  0  0  0  0  0  0  0
  -25.4836    2.2697    7.5764 O   0  0  0  0  0  0  0  0  0  0  0  0
  -22.7260    0.4349    7.8866 H   0  0  0  0  0  0  0  0  0  0  0  0
  -22.1825    2.6976    7.0721 H   0  0  0  0  0  0  0  0  0  0  0  0
  1  6  1  0  0  0
  1  7  1  0  0  0
  2  3  1  0  0  0
  2  6  1  0  0  0
  3  4  1  0  0  0
  3  5  2  0  0  0
  5 12  1  0  0  0
  5  7  1  0  0  0
 12 13  1  0  0  0
  6  8  2  0  0  0
  7  9  2  0  0  0
 13 14  1  0  0  0
 14 15  1  0  0  0
 15 16  1  0  0  0
 16 17  1  0  0  0
 17 18  1  0  0  0
 17 19  1  0  0  0
 17 20  2  0  0  0
  1 10  1  0  0  0
  2 11  1  0  0  0
 18 21  1  0  0  0
 19 22  1  0  0  0
M  END
> <minimizedAffinity>
-6.83472

$$$$
