1X8D_RNS_A_1105


 15 14  0  0  0  0  0  0  0  0999 V2000
   10.6667   31.4203    9.7725 C   0  0  0  0  0  0  0  0  0  0  0  0
   11.0661   30.2049    9.1527 O   0  0  0  0  0  0  0  0  0  0  0  0
   11.2342   30.3625    8.2105 H   0  0  0  0  0  0  0  0  0  0  0  0
   11.7745   32.4759    9.6503 C   0  0  0  0  0  0  0  0  0  0  0  0
   11.9662   33.1461   10.8962 O   0  0  0  0  0  0  0  0  0  0  0  0
   12.2213   32.5012   11.5743 H   0  0  0  0  0  0  0  0  0  0  0  0
   13.0703   31.7786    9.2385 C   0  0  0  0  0  0  0  0  0  0  0  0
   13.0841   31.5755    7.8734 O   0  0  0  0  0  0  0  0  0  0  0  0
    9.3843   31.9405    9.1168 C   0  0  0  0  0  0  0  0  0  0  0  0
    8.8702   33.0159    9.8942 O   0  0  0  0  0  0  0  0  0  0  0  0
    9.5310   33.7243    9.9432 H   0  0  0  0  0  0  0  0  0  0  0  0
    9.7040   32.4158    7.6919 C   0  0  0  0  0  0  0  0  0  0  0  0
    8.5331   33.0789    6.9941 C   0  0  0  0  0  0  0  0  0  0  0  0
   10.1197   31.2980    6.8752 O   0  0  0  0  0  0  0  0  0  0  0  0
    9.3895   30.6639    6.7991 H   0  0  0  0  0  0  0  0  0  0  0  0
  7  4  1  0  0  0
  7  8  2  0  0  0
  4  1  1  0  0  0
  4  5  1  0  0  0
  1  9  1  0  0  0
  1  2  1  0  0  0
  9 12  1  0  0  0
  9 10  1  0  0  0
 12 13  1  0  0  0
 12 14  1  0  0  0
  5  6  1  0  0  0
  2  3  1  0  0  0
 10 11  1  0  0  0
 14 15  1  0  0  0
M  END
> <minimizedAffinity>
-5.23033

$$$$
1X8D_RNS_A_1105


 15 14  0  0  0  0  0  0  0  0999 V2000
   11.1321   31.4725    8.5601 C   0  0  0  0  0  0  0  0  0  0  0  0
   12.1058   31.7473    7.5615 O   0  0  0  0  0  0  0  0  0  0  0  0
   12.1452   32.7034    7.4027 H   0  0  0  0  0  0  0  0  0  0  0  0
   11.5035   32.1653    9.8787 C   0  0  0  0  0  0  0  0  0  0  0  0
   11.0651   31.3877   10.9928 O   0  0  0  0  0  0  0  0  0  0  0  0
   11.4903   30.5162   10.9661 H   0  0  0  0  0  0  0  0  0  0  0  0
   13.0217   32.3293    9.9335 C   0  0  0  0  0  0  0  0  0  0  0  0
   13.3737   33.6034    9.5364 O   0  0  0  0  0  0  0  0  0  0  0  0
    9.7572   31.9579    8.0922 C   0  0  0  0  0  0  0  0  0  0  0  0
    9.3484   33.0486    8.9097 O   0  0  0  0  0  0  0  0  0  0  0  0
    9.9972   33.7662    8.8396 H   0  0  0  0  0  0  0  0  0  0  0  0
    9.8506   32.3962    6.6233 C   0  0  0  0  0  0  0  0  0  0  0  0
    8.7454   33.3429    6.1988 C   0  0  0  0  0  0  0  0  0  0  0  0
    9.7916   31.2426    5.7543 O   0  0  0  0  0  0  0  0  0  0  0  0
    8.9334   30.8027    5.8587 H   0  0  0  0  0  0  0  0  0  0  0  0
  7  4  1  0  0  0
  7  8  2  0  0  0
  4  1  1  0  0  0
  4  5  1  0  0  0
  1  9  1  0  0  0
  1  2  1  0  0  0
  9 12  1  0  0  0
  9 10  1  0  0  0
 12 13  1  0  0  0
 12 14  1  0  0  0
  5  6  1  0  0  0
  2  3  1  0  0  0
 10 11  1  0  0  0
 14 15  1  0  0  0
M  END
> <minimizedAffinity>
-5.07582

$$$$
1X8D_RNS_A_1105


 15 14  0  0  0  0  0  0  0  0999 V2000
   11.5318   30.9367    8.3574 C   0  0  0  0  0  0  0  0  0  0  0  0
   11.8912   30.1724    7.2139 O   0  0  0  0  0  0  0  0  0  0  0  0
   12.1756   30.7681    6.5032 H   0  0  0  0  0  0  0  0  0  0  0  0
   12.7332   31.7490    8.8609 C   0  0  0  0  0  0  0  0  0  0  0  0
   12.4943   33.1472    8.6997 O   0  0  0  0  0  0  0  0  0  0  0  0
   11.7085   33.4017    9.2084 H   0  0  0  0  0  0  0  0  0  0  0  0
   12.9507   31.4332   10.3401 C   0  0  0  0  0  0  0  0  0  0  0  0
   12.4636   32.4630   11.1194 O   0  0  0  0  0  0  0  0  0  0  0  0
   10.3796   31.8830    8.0082 C   0  0  0  0  0  0  0  0  0  0  0  0
    9.7722   31.4460    6.7977 O   0  0  0  0  0  0  0  0  0  0  0  0
    9.4390   30.5422    6.9111 H   0  0  0  0  0  0  0  0  0  0  0  0
    9.3563   31.8749    9.1532 C   0  0  0  0  0  0  0  0  0  0  0  0
    7.9303   32.1125    8.6973 C   0  0  0  0  0  0  0  0  0  0  0  0
    9.6801   32.9012   10.1183 O   0  0  0  0  0  0  0  0  0  0  0  0
    9.6182   33.7726    9.6967 H   0  0  0  0  0  0  0  0  0  0  0  0
  7  4  1  0  0  0
  7  8  2  0  0  0
  4  1  1  0  0  0
  4  5  1  0  0  0
  1  9  1  0  0  0
  1  2  1  0  0  0
  9 12  1  0  0  0
  9 10  1  0  0  0
 12 13  1  0  0  0
 12 14  1  0  0  0
  5  6  1  0  0  0
  2  3  1  0  0  0
 10 11  1  0  0  0
 14 15  1  0  0  0
M  END
> <minimizedAffinity>
-5.01278

$$$$
1X8D_RNS_A_1105


 15 14  0  0  0  0  0  0  0  0999 V2000
   11.3645   32.0823    8.2099 C   0  0  0  0  0  0  0  0  0  0  0  0
   12.2793   32.9985    8.7968 O   0  0  0  0  0  0  0  0  0  0  0  0
   12.5157   32.6940    9.6869 H   0  0  0  0  0  0  0  0  0  0  0  0
   11.9997   30.6899    8.0903 C   0  0  0  0  0  0  0  0  0  0  0  0
   11.1599   29.7039    8.6908 O   0  0  0  0  0  0  0  0  0  0  0  0
   10.2996   29.6955    8.2427 H   0  0  0  0  0  0  0  0  0  0  0  0
   12.1919   30.3664    6.6092 C   0  0  0  0  0  0  0  0  0  0  0  0
   11.4570   31.2417    5.8354 O   0  0  0  0  0  0  0  0  0  0  0  0
   10.0950   31.9983    9.0622 C   0  0  0  0  0  0  0  0  0  0  0  0
   10.2491   32.8314   10.2056 O   0  0  0  0  0  0  0  0  0  0  0  0
   10.3999   33.7464    9.9210 H   0  0  0  0  0  0  0  0  0  0  0  0
    8.8936   32.4581    8.2235 C   0  0  0  0  0  0  0  0  0  0  0  0
    7.5534   32.1737    8.8722 C   0  0  0  0  0  0  0  0  0  0  0  0
    8.9020   31.7984    6.9373 O   0  0  0  0  0  0  0  0  0  0  0  0
    8.8024   30.8418    7.0639 H   0  0  0  0  0  0  0  0  0  0  0  0
  7  4  1  0  0  0
  7  8  2  0  0  0
  4  1  1  0  0  0
  4  5  1  0  0  0
  1  9  1  0  0  0
  1  2  1  0  0  0
  9 12  1  0  0  0
  9 10  1  0  0  0
 12 13  1  0  0  0
 12 14  1  0  0  0
  5  6  1  0  0  0
  2  3  1  0  0  0
 10 11  1  0  0  0
 14 15  1  0  0  0
M  END
> <minimizedAffinity>
-4.97572

$$$$
1X8D_RNS_A_1105


 15 14  0  0  0  0  0  0  0  0999 V2000
    9.6404   31.9881    8.5141 C   0  0  0  0  0  0  0  0  0  0  0  0
    9.0747   33.1652    9.0754 O   0  0  0  0  0  0  0  0  0  0  0  0
    9.7826   33.7903    9.2970 H   0  0  0  0  0  0  0  0  0  0  0  0
   10.4095   32.3213    7.2280 C   0  0  0  0  0  0  0  0  0  0  0  0
   10.5547   31.1560    6.4161 O   0  0  0  0  0  0  0  0  0  0  0  0
    9.6778   30.8167    6.1778 H   0  0  0  0  0  0  0  0  0  0  0  0
    9.6340   33.3893    6.4579 C   0  0  0  0  0  0  0  0  0  0  0  0
    8.2964   33.0535    6.4022 O   0  0  0  0  0  0  0  0  0  0  0  0
   10.5859   31.3334    9.5252 C   0  0  0  0  0  0  0  0  0  0  0  0
   11.0098   30.0744    9.0147 O   0  0  0  0  0  0  0  0  0  0  0  0
   11.4652   30.2055    8.1683 H   0  0  0  0  0  0  0  0  0  0  0  0
   11.7949   32.2525    9.7530 C   0  0  0  0  0  0  0  0  0  0  0  0
   13.0529   31.5135   10.1641 C   0  0  0  0  0  0  0  0  0  0  0  0
   11.4997   33.2167   10.7887 O   0  0  0  0  0  0  0  0  0  0  0  0
   11.3415   32.7534   11.6261 H   0  0  0  0  0  0  0  0  0  0  0  0
  7  4  1  0  0  0
  7  8  2  0  0  0
  4  1  1  0  0  0
  4  5  1  0  0  0
  1  9  1  0  0  0
  1  2  1  0  0  0
  9 12  1  0  0  0
  9 10  1  0  0  0
 12 13  1  0  0  0
 12 14  1  0  0  0
  5  6  1  0  0  0
  2  3  1  0  0  0
 10 11  1  0  0  0
 14 15  1  0  0  0
M  END
> <minimizedAffinity>
-4.89878

$$$$
1X8D_RNS_A_1105


 15 14  0  0  0  0  0  0  0  0999 V2000
   10.5271   31.9534    7.4745 C   0  0  0  0  0  0  0  0  0  0  0  0
   10.6477   30.8384    8.3479 O   0  0  0  0  0  0  0  0  0  0  0  0
    9.8817   30.2543    8.2343 H   0  0  0  0  0  0  0  0  0  0  0  0
   10.4874   31.4892    6.0117 C   0  0  0  0  0  0  0  0  0  0  0  0
   10.5718   32.6085    5.1295 O   0  0  0  0  0  0  0  0  0  0  0  0
   11.4042   33.0813    5.2857 H   0  0  0  0  0  0  0  0  0  0  0  0
   11.6684   30.5515    5.7647 C   0  0  0  0  0  0  0  0  0  0  0  0
   12.7237   30.8949    6.5852 O   0  0  0  0  0  0  0  0  0  0  0  0
    9.2513   32.7342    7.8023 C   0  0  0  0  0  0  0  0  0  0  0  0
    8.2295   32.3572    6.8863 O   0  0  0  0  0  0  0  0  0  0  0  0
    8.0654   31.4040    6.9592 H   0  0  0  0  0  0  0  0  0  0  0  0
    8.8221   32.4166    9.2423 C   0  0  0  0  0  0  0  0  0  0  0  0
    7.5083   33.0584    9.6418 C   0  0  0  0  0  0  0  0  0  0  0  0
    9.8289   32.8720   10.1742 O   0  0  0  0  0  0  0  0  0  0  0  0
    9.9111   33.8367   10.1154 H   0  0  0  0  0  0  0  0  0  0  0  0
  7  4  1  0  0  0
  7  8  2  0  0  0
  4  1  1  0  0  0
  4  5  1  0  0  0
  1  9  1  0  0  0
  1  2  1  0  0  0
  9 12  1  0  0  0
  9 10  1  0  0  0
 12 13  1  0  0  0
 12 14  1  0  0  0
  5  6  1  0  0  0
  2  3  1  0  0  0
 10 11  1  0  0  0
 14 15  1  0  0  0
M  END
> <minimizedAffinity>
-4.87352

$$$$
1X8D_RNS_A_1105


 15 14  0  0  0  0  0  0  0  0999 V2000
   10.8310   31.9576    7.7843 C   0  0  0  0  0  0  0  0  0  0  0  0
   11.0847   30.9971    6.7676 O   0  0  0  0  0  0  0  0  0  0  0  0
   10.4937   30.2371    6.8862 H   0  0  0  0  0  0  0  0  0  0  0  0
    9.3816   32.4567    7.7035 C   0  0  0  0  0  0  0  0  0  0  0  0
    9.0401   33.1932    8.8779 O   0  0  0  0  0  0  0  0  0  0  0  0
    9.6306   33.9580    8.9630 H   0  0  0  0  0  0  0  0  0  0  0  0
    9.2423   33.3559    6.4759 C   0  0  0  0  0  0  0  0  0  0  0  0
   10.4745   33.5369    5.8809 O   0  0  0  0  0  0  0  0  0  0  0  0
   11.0865   31.3367    9.1606 C   0  0  0  0  0  0  0  0  0  0  0  0
   10.9392   29.9244    9.0659 O   0  0  0  0  0  0  0  0  0  0  0  0
   11.5731   29.5758    8.4197 H   0  0  0  0  0  0  0  0  0  0  0  0
   12.5070   31.6965    9.6200 C   0  0  0  0  0  0  0  0  0  0  0  0
   12.5454   32.7333   10.7252 C   0  0  0  0  0  0  0  0  0  0  0  0
   13.2729   32.2168    8.5099 O   0  0  0  0  0  0  0  0  0  0  0  0
   12.8666   33.0390    8.1940 H   0  0  0  0  0  0  0  0  0  0  0  0
  7  4  1  0  0  0
  7  8  2  0  0  0
  4  1  1  0  0  0
  4  5  1  0  0  0
  1  9  1  0  0  0
  1  2  1  0  0  0
  9 12  1  0  0  0
  9 10  1  0  0  0
 12 13  1  0  0  0
 12 14  1  0  0  0
  5  6  1  0  0  0
  2  3  1  0  0  0
 10 11  1  0  0  0
 14 15  1  0  0  0
M  END
> <minimizedAffinity>
-4.83110

$$$$
1X8D_RNS_A_1105


 15 14  0  0  0  0  0  0  0  0999 V2000
   10.6101   32.0467    7.6887 C   0  0  0  0  0  0  0  0  0  0  0  0
   10.8819   31.0069    6.7584 O   0  0  0  0  0  0  0  0  0  0  0  0
   10.2772   30.2651    6.9168 H   0  0  0  0  0  0  0  0  0  0  0  0
    9.1708   32.5542    7.5231 C   0  0  0  0  0  0  0  0  0  0  0  0
    8.7926   33.3586    8.6403 O   0  0  0  0  0  0  0  0  0  0  0  0
    9.3882   34.1214    8.7059 H   0  0  0  0  0  0  0  0  0  0  0  0
    9.0899   33.3844    6.2428 C   0  0  0  0  0  0  0  0  0  0  0  0
   10.3598   33.6598    5.7775 O   0  0  0  0  0  0  0  0  0  0  0  0
   10.8143   31.5325    9.1166 C   0  0  0  0  0  0  0  0  0  0  0  0
   11.1175   30.1429    9.0693 O   0  0  0  0  0  0  0  0  0  0  0  0
   11.9231   30.0053    8.5466 H   0  0  0  0  0  0  0  0  0  0  0  0
   11.9658   32.3090    9.7720 C   0  0  0  0  0  0  0  0  0  0  0  0
   13.3356   31.9225    9.2504 C   0  0  0  0  0  0  0  0  0  0  0  0
   11.9668   32.0873   11.2004 O   0  0  0  0  0  0  0  0  0  0  0  0
   12.1268   31.1479   11.3817 H   0  0  0  0  0  0  0  0  0  0  0  0
  7  4  1  0  0  0
  7  8  2  0  0  0
  4  1  1  0  0  0
  4  5  1  0  0  0
  1  9  1  0  0  0
  1  2  1  0  0  0
  9 12  1  0  0  0
  9 10  1  0  0  0
 12 13  1  0  0  0
 12 14  1  0  0  0
  5  6  1  0  0  0
  2  3  1  0  0  0
 10 11  1  0  0  0
 14 15  1  0  0  0
M  END
> <minimizedAffinity>
-4.78388

$$$$
1X8D_RNS_A_1105


 15 14  0  0  0  0  0  0  0  0999 V2000
   10.8916   31.7646    8.5855 C   0  0  0  0  0  0  0  0  0  0  0  0
    9.9573   30.8369    9.1213 O   0  0  0  0  0  0  0  0  0  0  0  0
    9.9901   30.0132    8.6100 H   0  0  0  0  0  0  0  0  0  0  0  0
   12.3173   31.2017    8.6693 C   0  0  0  0  0  0  0  0  0  0  0  0
   13.0336   31.4727    7.4645 O   0  0  0  0  0  0  0  0  0  0  0  0
   13.0829   32.4316    7.3264 H   0  0  0  0  0  0  0  0  0  0  0  0
   13.0327   31.8574    9.8496 C   0  0  0  0  0  0  0  0  0  0  0  0
   12.2111   31.8581   10.9587 O   0  0  0  0  0  0  0  0  0  0  0  0
   10.5425   32.0689    7.1259 C   0  0  0  0  0  0  0  0  0  0  0  0
   10.6324   30.8675    6.3683 O   0  0  0  0  0  0  0  0  0  0  0  0
   10.0161   30.2110    6.7289 H   0  0  0  0  0  0  0  0  0  0  0  0
    9.1184   32.6393    7.0567 C   0  0  0  0  0  0  0  0  0  0  0  0
    8.8788   33.5353    5.8577 C   0  0  0  0  0  0  0  0  0  0  0  0
    8.8345   33.4158    8.2425 O   0  0  0  0  0  0  0  0  0  0  0  0
    9.4362   34.1755    8.2833 H   0  0  0  0  0  0  0  0  0  0  0  0
  7  4  1  0  0  0
  7  8  2  0  0  0
  4  1  1  0  0  0
  4  5  1  0  0  0
  1  9  1  0  0  0
  1  2  1  0  0  0
  9 12  1  0  0  0
  9 10  1  0  0  0
 12 13  1  0  0  0
 12 14  1  0  0  0
  5  6  1  0  0  0
  2  3  1  0  0  0
 10 11  1  0  0  0
 14 15  1  0  0  0
M  END
> <minimizedAffinity>
-4.78375

$$$$
1X8D_RNS_A_1105


 15 14  0  0  0  0  0  0  0  0999 V2000
   10.5077   32.5304    7.6854 C   0  0  0  0  0  0  0  0  0  0  0  0
   11.8060   32.7386    8.2255 O   0  0  0  0  0  0  0  0  0  0  0  0
   12.3395   31.9379    8.1027 H   0  0  0  0  0  0  0  0  0  0  0  0
   10.5918   32.2331    6.1817 C   0  0  0  0  0  0  0  0  0  0  0  0
   11.4977   31.1577    5.9346 O   0  0  0  0  0  0  0  0  0  0  0  0
   11.1880   30.3618    6.3945 H   0  0  0  0  0  0  0  0  0  0  0  0
    9.1988   31.8555    5.6798 C   0  0  0  0  0  0  0  0  0  0  0  0
    9.2734   30.7345    4.8781 O   0  0  0  0  0  0  0  0  0  0  0  0
    9.8273   31.3621    8.4046 C   0  0  0  0  0  0  0  0  0  0  0  0
   10.8177   30.4153    8.7892 O   0  0  0  0  0  0  0  0  0  0  0  0
   11.4605   30.8409    9.3780 H   0  0  0  0  0  0  0  0  0  0  0  0
    9.0871   31.8936    9.6407 C   0  0  0  0  0  0  0  0  0  0  0  0
    7.7115   32.4514    9.3337 C   0  0  0  0  0  0  0  0  0  0  0  0
    9.8536   32.9480   10.2654 O   0  0  0  0  0  0  0  0  0  0  0  0
    9.9386   33.6936    9.6508 H   0  0  0  0  0  0  0  0  0  0  0  0
  7  4  1  0  0  0
  7  8  2  0  0  0
  4  1  1  0  0  0
  4  5  1  0  0  0
  1  9  1  0  0  0
  1  2  1  0  0  0
  9 12  1  0  0  0
  9 10  1  0  0  0
 12 13  1  0  0  0
 12 14  1  0  0  0
  5  6  1  0  0  0
  2  3  1  0  0  0
 10 11  1  0  0  0
 14 15  1  0  0  0
M  END
> <minimizedAffinity>
-4.71249

$$$$
