4BF6_X0Q_A_1263


 24 26  0  0  0  0  0  0  0  0999 V2000
   -4.1201    3.2719   12.3160 C   0  0  0  0  0  0  0  0  0  0  0  0
   -2.7530    3.3856   12.2177 C   0  0  0  0  0  0  0  0  0  0  0  0
   -2.6445    3.4632   10.8653 N   0  0  0  0  0  0  0  0  0  0  0  0
   -3.8463    3.3341   10.1280 N   0  0  0  0  0  0  0  0  0  0  0  0
   -4.7938    3.2219   11.1147 N   0  0  0  0  0  0  0  0  0  0  0  0
   -1.4692    3.6113   10.2087 C   0  0  0  0  0  0  0  0  0  0  0  0
   -0.2024    3.4923   10.8255 C   0  0  0  0  0  0  0  0  0  0  0  0
    1.0112    3.6831   10.1129 C   0  0  0  0  0  0  0  0  0  0  0  0
    0.9928    3.9686    8.7576 C   0  0  0  0  0  0  0  0  0  0  0  0
   -0.2506    4.0725    8.1125 C   0  0  0  0  0  0  0  0  0  0  0  0
   -1.4545    3.9055    8.8336 C   0  0  0  0  0  0  0  0  0  0  0  0
   -0.3008    4.3981    6.8617 C   0  0  0  0  0  0  0  0  0  0  0  0
   -0.3217    4.7187    5.7440 N   0  0  0  0  0  0  0  0  0  0  0  0
   -5.7885    2.2940   15.7706 C   0  0  0  0  0  0  0  0  0  0  0  0
   -4.7407    1.7173   14.5355 S   0  0  0  0  0  0  0  0  0  0  0  0
   -4.9285    3.1286   13.5687 C   0  0  0  0  0  0  0  0  0  0  0  0
   -5.7804    4.0342   14.1656 C   0  0  0  0  0  0  0  0  0  0  0  0
   -6.3285    3.5007   15.3663 C   0  0  0  0  0  0  0  0  0  0  0  0
   -7.6172    0.9129   17.0191 O   0  0  0  0  0  0  0  0  0  0  0  0
   -6.1976    1.2928   17.1189 S   0  0  0  0  0  0  0  0  0  0  0  0
   -5.9574    1.9283   18.3946 O   0  0  0  0  0  0  0  0  0  0  0  0
   -5.2850    0.0041   16.9913 N   0  0  0  0  0  0  0  0  0  0  0  0
   -5.4823   -0.6302   17.7654 H   0  0  0  0  0  0  0  0  0  0  0  0
   -4.3031    0.2788   17.0186 H   0  0  0  0  0  0  0  0  0  0  0  0
 19 20  2  0  0  0
 20 21  2  0  0  0
 20 22  1  0  0  0
 20 14  1  0  0  0
 14 15  1  0  0  0
 14 18  2  0  0  0
 15 16  1  0  0  0
 16 17  2  0  0  0
 16  1  1  0  0  0
 17 18  1  0  0  0
  1  2  2  0  0  0
  1  5  1  0  0  0
  2  3  1  0  0  0
  3  4  1  0  0  0
  3  6  1  0  0  0
  4  5  2  0  0  0
  6  7  1  0  0  0
  6 11  2  0  0  0
  7  8  2  0  0  0
  8  9  1  0  0  0
  9 10  2  0  0  0
 10 11  1  0  0  0
 10 12  1  0  0  0
 12 13  3  0  0  0
 22 23  1  0  0  0
 22 24  1  0  0  0
M  END
> <minimizedAffinity>
-7.41865

$$$$
4BF6_X0Q_A_1263


 24 26  0  0  0  0  0  0  0  0999 V2000
   -5.0796    5.6339   12.9737 C   0  0  0  0  0  0  0  0  0  0  0  0
   -6.0173    6.4377   12.3685 C   0  0  0  0  0  0  0  0  0  0  0  0
   -5.1800    7.2550   11.6773 N   0  0  0  0  0  0  0  0  0  0  0  0
   -3.7932    7.0492   11.8744 N   0  0  0  0  0  0  0  0  0  0  0  0
   -3.7668    5.9700   12.7221 N   0  0  0  0  0  0  0  0  0  0  0  0
   -5.5995    8.2549   10.8658 C   0  0  0  0  0  0  0  0  0  0  0  0
   -5.0586    9.5613   10.8818 C   0  0  0  0  0  0  0  0  0  0  0  0
   -5.5425   10.5950   10.0368 C   0  0  0  0  0  0  0  0  0  0  0  0
   -6.5602   10.3438    9.1313 C   0  0  0  0  0  0  0  0  0  0  0  0
   -7.1036    9.0496    9.0775 C   0  0  0  0  0  0  0  0  0  0  0  0
   -6.6334    8.0326    9.9388 C   0  0  0  0  0  0  0  0  0  0  0  0
   -8.0955    8.8011    8.2854 C   0  0  0  0  0  0  0  0  0  0  0  0
   -8.9757    8.6056    7.5509 N   0  0  0  0  0  0  0  0  0  0  0  0
   -5.0680    2.3698   15.2140 C   0  0  0  0  0  0  0  0  0  0  0  0
   -4.3192    3.1092   13.8545 S   0  0  0  0  0  0  0  0  0  0  0  0
   -5.3342    4.4976   13.9156 C   0  0  0  0  0  0  0  0  0  0  0  0
   -6.2403    4.4096   14.9516 C   0  0  0  0  0  0  0  0  0  0  0  0
   -6.1332    3.1545   15.6150 C   0  0  0  0  0  0  0  0  0  0  0  0
   -3.3055    0.8489   16.3934 O   0  0  0  0  0  0  0  0  0  0  0  0
   -4.6117    0.7800   15.7162 S   0  0  0  0  0  0  0  0  0  0  0  0
   -4.5390   -0.1640   14.6242 O   0  0  0  0  0  0  0  0  0  0  0  0
   -5.7262    0.3156   16.7418 N   0  0  0  0  0  0  0  0  0  0  0  0
   -5.5103   -0.6235   17.0763 H   0  0  0  0  0  0  0  0  0  0  0  0
   -6.6345    0.3108   16.2778 H   0  0  0  0  0  0  0  0  0  0  0  0
 19 20  2  0  0  0
 20 21  2  0  0  0
 20 22  1  0  0  0
 20 14  1  0  0  0
 14 15  1  0  0  0
 14 18  2  0  0  0
 15 16  1  0  0  0
 16 17  2  0  0  0
 16  1  1  0  0  0
 17 18  1  0  0  0
  1  2  2  0  0  0
  1  5  1  0  0  0
  2  3  1  0  0  0
  3  4  1  0  0  0
  3  6  1  0  0  0
  4  5  2  0  0  0
  6  7  1  0  0  0
  6 11  2  0  0  0
  7  8  2  0  0  0
  8  9  1  0  0  0
  9 10  2  0  0  0
 10 11  1  0  0  0
 10 12  1  0  0  0
 12 13  3  0  0  0
 22 23  1  0  0  0
 22 24  1  0  0  0
M  END
> <minimizedAffinity>
-7.28120

$$$$
4BF6_X0Q_A_1263


 24 26  0  0  0  0  0  0  0  0999 V2000
   -5.0598    4.5526   12.8933 C   0  0  0  0  0  0  0  0  0  0  0  0
   -5.4084    5.8824   12.8540 C   0  0  0  0  0  0  0  0  0  0  0  0
   -5.3647    6.0723   11.5091 N   0  0  0  0  0  0  0  0  0  0  0  0
   -4.9450    4.9673   10.7298 N   0  0  0  0  0  0  0  0  0  0  0  0
   -4.7652    3.9857   11.6721 N   0  0  0  0  0  0  0  0  0  0  0  0
   -5.6548    7.2477   10.9020 C   0  0  0  0  0  0  0  0  0  0  0  0
   -4.9761    8.4595   11.1674 C   0  0  0  0  0  0  0  0  0  0  0  0
   -5.3259    9.6814   10.5338 C   0  0  0  0  0  0  0  0  0  0  0  0
   -6.3440    9.7200    9.5953 C   0  0  0  0  0  0  0  0  0  0  0  0
   -7.0229    8.5276    9.2951 C   0  0  0  0  0  0  0  0  0  0  0  0
   -6.6854    7.3204    9.9479 C   0  0  0  0  0  0  0  0  0  0  0  0
   -8.0177    8.5446    8.4685 C   0  0  0  0  0  0  0  0  0  0  0  0
   -8.9332    8.5429    7.7514 N   0  0  0  0  0  0  0  0  0  0  0  0
   -5.4119    2.2093   16.0649 C   0  0  0  0  0  0  0  0  0  0  0  0
   -6.3016    3.2115   14.9879 S   0  0  0  0  0  0  0  0  0  0  0  0
   -4.9021    3.6940   14.1103 C   0  0  0  0  0  0  0  0  0  0  0  0
   -3.7633    3.1097   14.6242 C   0  0  0  0  0  0  0  0  0  0  0  0
   -4.0644    2.3474   15.7882 C   0  0  0  0  0  0  0  0  0  0  0  0
   -7.5808    1.1000   17.0009 O   0  0  0  0  0  0  0  0  0  0  0  0
   -6.1966    1.4216   17.3883 S   0  0  0  0  0  0  0  0  0  0  0  0
   -6.2062    2.2126   18.5980 O   0  0  0  0  0  0  0  0  0  0  0  0
   -5.3831    0.0853   17.6382 N   0  0  0  0  0  0  0  0  0  0  0  0
   -5.8018   -0.4275   18.4141 H   0  0  0  0  0  0  0  0  0  0  0  0
   -4.4151    0.3138   17.8645 H   0  0  0  0  0  0  0  0  0  0  0  0
 19 20  2  0  0  0
 20 21  2  0  0  0
 20 22  1  0  0  0
 20 14  1  0  0  0
 14 15  1  0  0  0
 14 18  2  0  0  0
 15 16  1  0  0  0
 16 17  2  0  0  0
 16  1  1  0  0  0
 17 18  1  0  0  0
  1  2  2  0  0  0
  1  5  1  0  0  0
  2  3  1  0  0  0
  3  4  1  0  0  0
  3  6  1  0  0  0
  4  5  2  0  0  0
  6  7  1  0  0  0
  6 11  2  0  0  0
  7  8  2  0  0  0
  8  9  1  0  0  0
  9 10  2  0  0  0
 10 11  1  0  0  0
 10 12  1  0  0  0
 12 13  3  0  0  0
 22 23  1  0  0  0
 22 24  1  0  0  0
M  END
> <minimizedAffinity>
-7.25196

$$$$
4BF6_X0Q_A_1263


 24 26  0  0  0  0  0  0  0  0999 V2000
   -4.3525    3.8394   10.7942 C   0  0  0  0  0  0  0  0  0  0  0  0
   -4.8949    5.0897   10.9791 C   0  0  0  0  0  0  0  0  0  0  0  0
   -4.6808    5.5984    9.7373 N   0  0  0  0  0  0  0  0  0  0  0  0
   -3.9817    4.7683    8.8280 N   0  0  0  0  0  0  0  0  0  0  0  0
   -3.7937    3.6186    9.5538 N   0  0  0  0  0  0  0  0  0  0  0  0
   -5.0570    6.8419    9.3549 C   0  0  0  0  0  0  0  0  0  0  0  0
   -4.2006    7.9668    9.3820 C   0  0  0  0  0  0  0  0  0  0  0  0
   -4.6367    9.2637    9.0015 C   0  0  0  0  0  0  0  0  0  0  0  0
   -5.9320    9.4667    8.5549 C   0  0  0  0  0  0  0  0  0  0  0  0
   -6.8003    8.3641    8.4970 C   0  0  0  0  0  0  0  0  0  0  0  0
   -6.3662    7.0811    8.9006 C   0  0  0  0  0  0  0  0  0  0  0  0
   -8.0326    8.5339    8.1423 C   0  0  0  0  0  0  0  0  0  0  0  0
   -9.1289    8.7107    7.7971 N   0  0  0  0  0  0  0  0  0  0  0  0
   -4.3921    1.4488   13.9497 C   0  0  0  0  0  0  0  0  0  0  0  0
   -4.5359    3.0922   13.4655 S   0  0  0  0  0  0  0  0  0  0  0  0
   -4.2463    2.7402   11.8060 C   0  0  0  0  0  0  0  0  0  0  0  0
   -4.0364    1.3913   11.6099 C   0  0  0  0  0  0  0  0  0  0  0  0
   -4.0305    0.6925   12.8503 C   0  0  0  0  0  0  0  0  0  0  0  0
   -3.1879    1.3729   16.2637 O   0  0  0  0  0  0  0  0  0  0  0  0
   -4.4629    1.0120   15.6206 S   0  0  0  0  0  0  0  0  0  0  0  0
   -4.7284   -0.3929   15.8319 O   0  0  0  0  0  0  0  0  0  0  0  0
   -5.6409    1.8707   16.2409 N   0  0  0  0  0  0  0  0  0  0  0  0
   -5.7325    1.6551   17.2337 H   0  0  0  0  0  0  0  0  0  0  0  0
   -6.5134    1.6467   15.7624 H   0  0  0  0  0  0  0  0  0  0  0  0
 19 20  2  0  0  0
 20 21  2  0  0  0
 20 22  1  0  0  0
 20 14  1  0  0  0
 14 15  1  0  0  0
 14 18  2  0  0  0
 15 16  1  0  0  0
 16 17  2  0  0  0
 16  1  1  0  0  0
 17 18  1  0  0  0
  1  2  2  0  0  0
  1  5  1  0  0  0
  2  3  1  0  0  0
  3  4  1  0  0  0
  3  6  1  0  0  0
  4  5  2  0  0  0
  6  7  1  0  0  0
  6 11  2  0  0  0
  7  8  2  0  0  0
  8  9  1  0  0  0
  9 10  2  0  0  0
 10 11  1  0  0  0
 10 12  1  0  0  0
 12 13  3  0  0  0
 22 23  1  0  0  0
 22 24  1  0  0  0
M  END
> <minimizedAffinity>
-7.12705

$$$$
4BF6_X0Q_A_1263


 24 26  0  0  0  0  0  0  0  0999 V2000
   -3.7241    2.8212   12.5997 C   0  0  0  0  0  0  0  0  0  0  0  0
   -3.6789    3.7528   11.5890 C   0  0  0  0  0  0  0  0  0  0  0  0
   -2.6552    3.2290   10.8649 N   0  0  0  0  0  0  0  0  0  0  0  0
   -2.0264    2.0798   11.4021 N   0  0  0  0  0  0  0  0  0  0  0  0
   -2.7628    1.8357   12.5343 N   0  0  0  0  0  0  0  0  0  0  0  0
   -2.1953    3.7648    9.7091 C   0  0  0  0  0  0  0  0  0  0  0  0
   -0.9021    3.5250    9.1899 C   0  0  0  0  0  0  0  0  0  0  0  0
   -0.4414    4.1271    7.9890 C   0  0  0  0  0  0  0  0  0  0  0  0
   -1.2707    4.9619    7.2582 C   0  0  0  0  0  0  0  0  0  0  0  0
   -2.5687    5.2027    7.7380 C   0  0  0  0  0  0  0  0  0  0  0  0
   -3.0116    4.6193    8.9467 C   0  0  0  0  0  0  0  0  0  0  0  0
   -3.3442    6.0254    7.1097 C   0  0  0  0  0  0  0  0  0  0  0  0
   -4.0116    6.7868    6.5377 N   0  0  0  0  0  0  0  0  0  0  0  0
   -5.7507    2.1751   15.9388 C   0  0  0  0  0  0  0  0  0  0  0  0
   -4.6365    1.4573   14.8437 S   0  0  0  0  0  0  0  0  0  0  0  0
   -4.6478    2.8091   13.7787 C   0  0  0  0  0  0  0  0  0  0  0  0
   -5.4898    3.8004   14.2374 C   0  0  0  0  0  0  0  0  0  0  0  0
   -6.1749    3.3812   15.4129 C   0  0  0  0  0  0  0  0  0  0  0  0
   -7.7598    0.9647   17.0830 O   0  0  0  0  0  0  0  0  0  0  0  0
   -6.3405    1.2919   17.3025 S   0  0  0  0  0  0  0  0  0  0  0  0
   -6.1986    2.0077   18.5501 O   0  0  0  0  0  0  0  0  0  0  0  0
   -5.4832   -0.0392   17.3574 N   0  0  0  0  0  0  0  0  0  0  0  0
   -5.7874   -0.6071   18.1483 H   0  0  0  0  0  0  0  0  0  0  0  0
   -4.4968    0.1960   17.4671 H   0  0  0  0  0  0  0  0  0  0  0  0
 19 20  2  0  0  0
 20 21  2  0  0  0
 20 22  1  0  0  0
 20 14  1  0  0  0
 14 15  1  0  0  0
 14 18  2  0  0  0
 15 16  1  0  0  0
 16 17  2  0  0  0
 16  1  1  0  0  0
 17 18  1  0  0  0
  1  2  2  0  0  0
  1  5  1  0  0  0
  2  3  1  0  0  0
  3  4  1  0  0  0
  3  6  1  0  0  0
  4  5  2  0  0  0
  6  7  1  0  0  0
  6 11  2  0  0  0
  7  8  2  0  0  0
  8  9  1  0  0  0
  9 10  2  0  0  0
 10 11  1  0  0  0
 10 12  1  0  0  0
 12 13  3  0  0  0
 22 23  1  0  0  0
 22 24  1  0  0  0
M  END
> <minimizedAffinity>
-7.12144

$$$$
4BF6_X0Q_A_1263


 24 26  0  0  0  0  0  0  0  0999 V2000
   -5.7803    5.8817   12.9841 C   0  0  0  0  0  0  0  0  0  0  0  0
   -5.2662    6.6878   11.9954 C   0  0  0  0  0  0  0  0  0  0  0  0
   -6.3961    7.3690   11.6699 N   0  0  0  0  0  0  0  0  0  0  0  0
   -7.5803    6.9846   12.3440 N   0  0  0  0  0  0  0  0  0  0  0  0
   -7.1341    6.0144   13.2062 N   0  0  0  0  0  0  0  0  0  0  0  0
   -6.4477    8.3408   10.7279 C   0  0  0  0  0  0  0  0  0  0  0  0
   -6.9100    8.1337    9.4077 C   0  0  0  0  0  0  0  0  0  0  0  0
   -6.9230    9.1690    8.4356 C   0  0  0  0  0  0  0  0  0  0  0  0
   -6.5024   10.4471    8.7644 C   0  0  0  0  0  0  0  0  0  0  0  0
   -6.0571   10.6886   10.0745 C   0  0  0  0  0  0  0  0  0  0  0  0
   -6.0240    9.6474   11.0295 C   0  0  0  0  0  0  0  0  0  0  0  0
   -5.6013   11.8563   10.3938 C   0  0  0  0  0  0  0  0  0  0  0  0
   -5.2268   12.9192   10.6807 N   0  0  0  0  0  0  0  0  0  0  0  0
   -4.4266    2.6780   14.8756 C   0  0  0  0  0  0  0  0  0  0  0  0
   -5.8229    3.3494   14.1303 S   0  0  0  0  0  0  0  0  0  0  0  0
   -5.0475    4.8450   13.7788 C   0  0  0  0  0  0  0  0  0  0  0  0
   -3.7417    4.8480   14.2227 C   0  0  0  0  0  0  0  0  0  0  0  0
   -3.4408    3.6460   14.9237 C   0  0  0  0  0  0  0  0  0  0  0  0
   -3.2898    0.9446   16.4611 O   0  0  0  0  0  0  0  0  0  0  0  0
   -4.4882    1.1207   15.6230 S   0  0  0  0  0  0  0  0  0  0  0  0
   -4.5753    0.0351   14.6727 O   0  0  0  0  0  0  0  0  0  0  0  0
   -5.7850    1.1304   16.5330 N   0  0  0  0  0  0  0  0  0  0  0  0
   -5.8764    0.2305   17.0043 H   0  0  0  0  0  0  0  0  0  0  0  0
   -6.6070    1.2949   15.9519 H   0  0  0  0  0  0  0  0  0  0  0  0
 19 20  2  0  0  0
 20 21  2  0  0  0
 20 22  1  0  0  0
 20 14  1  0  0  0
 14 15  1  0  0  0
 14 18  2  0  0  0
 15 16  1  0  0  0
 16 17  2  0  0  0
 16  1  1  0  0  0
 17 18  1  0  0  0
  1  2  2  0  0  0
  1  5  1  0  0  0
  2  3  1  0  0  0
  3  4  1  0  0  0
  3  6  1  0  0  0
  4  5  2  0  0  0
  6  7  1  0  0  0
  6 11  2  0  0  0
  7  8  2  0  0  0
  8  9  1  0  0  0
  9 10  2  0  0  0
 10 11  1  0  0  0
 10 12  1  0  0  0
 12 13  3  0  0  0
 22 23  1  0  0  0
 22 24  1  0  0  0
M  END
> <minimizedAffinity>
-7.11739

$$$$
4BF6_X0Q_A_1263


 24 26  0  0  0  0  0  0  0  0999 V2000
   -4.7605    4.7320   11.6832 C   0  0  0  0  0  0  0  0  0  0  0  0
   -4.5953    6.0118   12.1590 C   0  0  0  0  0  0  0  0  0  0  0  0
   -4.8968    6.6987   11.0258 N   0  0  0  0  0  0  0  0  0  0  0  0
   -5.1666    5.9239    9.8719 N   0  0  0  0  0  0  0  0  0  0  0  0
   -5.0790    4.6386   10.3455 N   0  0  0  0  0  0  0  0  0  0  0  0
   -4.9090    8.0504   10.9422 C   0  0  0  0  0  0  0  0  0  0  0  0
   -6.0860    8.8192   10.7899 C   0  0  0  0  0  0  0  0  0  0  0  0
   -6.0601   10.2345   10.6758 C   0  0  0  0  0  0  0  0  0  0  0  0
   -4.8599   10.9230   10.7407 C   0  0  0  0  0  0  0  0  0  0  0  0
   -3.6754   10.1880   10.9126 C   0  0  0  0  0  0  0  0  0  0  0  0
   -3.7069    8.7778   11.0008 C   0  0  0  0  0  0  0  0  0  0  0  0
   -2.5348   10.7980   10.9157 C   0  0  0  0  0  0  0  0  0  0  0  0
   -1.5221   11.3692   10.8913 N   0  0  0  0  0  0  0  0  0  0  0  0
   -4.5258    1.7509   14.2778 C   0  0  0  0  0  0  0  0  0  0  0  0
   -4.7215    3.4543   14.1518 S   0  0  0  0  0  0  0  0  0  0  0  0
   -4.5640    3.4534   12.4381 C   0  0  0  0  0  0  0  0  0  0  0  0
   -4.3595    2.1778   11.9552 C   0  0  0  0  0  0  0  0  0  0  0  0
   -4.2479    1.2424   13.0226 C   0  0  0  0  0  0  0  0  0  0  0  0
   -3.1467    1.2564   16.4375 O   0  0  0  0  0  0  0  0  0  0  0  0
   -4.4579    0.9828   15.8247 S   0  0  0  0  0  0  0  0  0  0  0  0
   -4.6718   -0.4453   15.7621 O   0  0  0  0  0  0  0  0  0  0  0  0
   -5.6058    1.6508   16.6883 N   0  0  0  0  0  0  0  0  0  0  0  0
   -5.6160    1.2354   17.6198 H   0  0  0  0  0  0  0  0  0  0  0  0
   -6.5066    1.4938   16.2362 H   0  0  0  0  0  0  0  0  0  0  0  0
 19 20  2  0  0  0
 20 21  2  0  0  0
 20 22  1  0  0  0
 20 14  1  0  0  0
 14 15  1  0  0  0
 14 18  2  0  0  0
 15 16  1  0  0  0
 16 17  2  0  0  0
 16  1  1  0  0  0
 17 18  1  0  0  0
  1  2  2  0  0  0
  1  5  1  0  0  0
  2  3  1  0  0  0
  3  4  1  0  0  0
  3  6  1  0  0  0
  4  5  2  0  0  0
  6  7  1  0  0  0
  6 11  2  0  0  0
  7  8  2  0  0  0
  8  9  1  0  0  0
  9 10  2  0  0  0
 10 11  1  0  0  0
 10 12  1  0  0  0
 12 13  3  0  0  0
 22 23  1  0  0  0
 22 24  1  0  0  0
M  END
> <minimizedAffinity>
-7.04379

$$$$
4BF6_X0Q_A_1263


 24 26  0  0  0  0  0  0  0  0999 V2000
   -5.7287    5.9550   12.3684 C   0  0  0  0  0  0  0  0  0  0  0  0
   -5.4015    6.1729   11.0504 C   0  0  0  0  0  0  0  0  0  0  0  0
   -6.4594    6.9487   10.6959 N   0  0  0  0  0  0  0  0  0  0  0  0
   -7.4461    7.1611   11.6888 N   0  0  0  0  0  0  0  0  0  0  0  0
   -6.9259    6.5034   12.7754 N   0  0  0  0  0  0  0  0  0  0  0  0
   -6.6288    7.4768    9.4603 C   0  0  0  0  0  0  0  0  0  0  0  0
   -5.5974    7.5751    8.4980 C   0  0  0  0  0  0  0  0  0  0  0  0
   -5.8024    8.1619    7.2211 C   0  0  0  0  0  0  0  0  0  0  0  0
   -7.0512    8.6398    6.8596 C   0  0  0  0  0  0  0  0  0  0  0  0
   -8.1011    8.5371    7.7870 C   0  0  0  0  0  0  0  0  0  0  0  0
   -7.8834    7.9740    9.0649 C   0  0  0  0  0  0  0  0  0  0  0  0
   -9.2625    9.0294    7.5008 C   0  0  0  0  0  0  0  0  0  0  0  0
  -10.2953    9.5053    7.2571 N   0  0  0  0  0  0  0  0  0  0  0  0
   -4.2253    3.2447   14.8318 C   0  0  0  0  0  0  0  0  0  0  0  0
   -5.6108    3.6316   13.8902 S   0  0  0  0  0  0  0  0  0  0  0  0
   -4.9668    5.1392   13.3671 C   0  0  0  0  0  0  0  0  0  0  0  0
   -3.7139    5.3599   13.8997 C   0  0  0  0  0  0  0  0  0  0  0  0
   -3.3540    4.3176   14.8002 C   0  0  0  0  0  0  0  0  0  0  0  0
   -5.2493    1.9116   16.8280 O   0  0  0  0  0  0  0  0  0  0  0  0
   -4.1917    1.8180   15.8070 S   0  0  0  0  0  0  0  0  0  0  0  0
   -2.9172    1.5983   16.4523 O   0  0  0  0  0  0  0  0  0  0  0  0
   -4.4988    0.6156   14.8223 N   0  0  0  0  0  0  0  0  0  0  0  0
   -4.4926   -0.2610   15.3438 H   0  0  0  0  0  0  0  0  0  0  0  0
   -3.7861    0.5826   14.0933 H   0  0  0  0  0  0  0  0  0  0  0  0
 19 20  2  0  0  0
 20 21  2  0  0  0
 20 22  1  0  0  0
 20 14  1  0  0  0
 14 15  1  0  0  0
 14 18  2  0  0  0
 15 16  1  0  0  0
 16 17  2  0  0  0
 16  1  1  0  0  0
 17 18  1  0  0  0
  1  2  2  0  0  0
  1  5  1  0  0  0
  2  3  1  0  0  0
  3  4  1  0  0  0
  3  6  1  0  0  0
  4  5  2  0  0  0
  6  7  1  0  0  0
  6 11  2  0  0  0
  7  8  2  0  0  0
  8  9  1  0  0  0
  9 10  2  0  0  0
 10 11  1  0  0  0
 10 12  1  0  0  0
 12 13  3  0  0  0
 22 23  1  0  0  0
 22 24  1  0  0  0
M  END
> <minimizedAffinity>
-6.84038

$$$$
4BF6_X0Q_A_1263


 24 26  0  0  0  0  0  0  0  0999 V2000
   -3.2251    2.8761   12.9242 C   0  0  0  0  0  0  0  0  0  0  0  0
   -2.4948    3.9904   12.5825 C   0  0  0  0  0  0  0  0  0  0  0  0
   -1.6680    3.4270   11.6629 N   0  0  0  0  0  0  0  0  0  0  0  0
   -1.7971    2.0302   11.4710 N   0  0  0  0  0  0  0  0  0  0  0  0
   -2.8363    1.7066   12.3072 N   0  0  0  0  0  0  0  0  0  0  0  0
   -0.7257    4.1130   10.9732 C   0  0  0  0  0  0  0  0  0  0  0  0
    0.1646    3.5167   10.0505 C   0  0  0  0  0  0  0  0  0  0  0  0
    1.1613    4.2614    9.3657 C   0  0  0  0  0  0  0  0  0  0  0  0
    1.2762    5.6278    9.5617 C   0  0  0  0  0  0  0  0  0  0  0  0
    0.3920    6.2522   10.4568 C   0  0  0  0  0  0  0  0  0  0  0  0
   -0.5813    5.5002   11.1530 C   0  0  0  0  0  0  0  0  0  0  0  0
    0.5147    7.5155   10.7060 C   0  0  0  0  0  0  0  0  0  0  0  0
    0.6140    8.6587   10.8949 N   0  0  0  0  0  0  0  0  0  0  0  0
   -5.6803    2.1545   15.9449 C   0  0  0  0  0  0  0  0  0  0  0  0
   -4.2784    1.5690   15.1400 S   0  0  0  0  0  0  0  0  0  0  0  0
   -4.3309    2.7924   13.9308 C   0  0  0  0  0  0  0  0  0  0  0  0
   -5.4013    3.6405   14.1233 C   0  0  0  0  0  0  0  0  0  0  0  0
   -6.2050    3.2045   15.2146 C   0  0  0  0  0  0  0  0  0  0  0  0
   -7.7710    1.0355   17.0346 O   0  0  0  0  0  0  0  0  0  0  0  0
   -6.3451    1.3003   17.2925 S   0  0  0  0  0  0  0  0  0  0  0  0
   -6.2056    2.0110   18.5432 O   0  0  0  0  0  0  0  0  0  0  0  0
   -5.5492   -0.0673   17.3711 N   0  0  0  0  0  0  0  0  0  0  0  0
   -5.8994   -0.6200   18.1536 H   0  0  0  0  0  0  0  0  0  0  0  0
   -4.5567    0.1244   17.5074 H   0  0  0  0  0  0  0  0  0  0  0  0
 19 20  2  0  0  0
 20 21  2  0  0  0
 20 22  1  0  0  0
 20 14  1  0  0  0
 14 15  1  0  0  0
 14 18  2  0  0  0
 15 16  1  0  0  0
 16 17  2  0  0  0
 16  1  1  0  0  0
 17 18  1  0  0  0
  1  2  2  0  0  0
  1  5  1  0  0  0
  2  3  1  0  0  0
  3  4  1  0  0  0
  3  6  1  0  0  0
  4  5  2  0  0  0
  6  7  1  0  0  0
  6 11  2  0  0  0
  7  8  2  0  0  0
  8  9  1  0  0  0
  9 10  2  0  0  0
 10 11  1  0  0  0
 10 12  1  0  0  0
 12 13  3  0  0  0
 22 23  1  0  0  0
 22 24  1  0  0  0
M  END
> <minimizedAffinity>
-6.79132

$$$$
4BF6_X0Q_A_1263


 24 26  0  0  0  0  0  0  0  0999 V2000
   -1.1118    5.0054   12.0956 C   0  0  0  0  0  0  0  0  0  0  0  0
   -1.8367    6.0093   12.6942 C   0  0  0  0  0  0  0  0  0  0  0  0
   -0.8626    6.9535   12.7750 N   0  0  0  0  0  0  0  0  0  0  0  0
    0.4256    6.5698   12.3304 N   0  0  0  0  0  0  0  0  0  0  0  0
    0.2198    5.2893   11.8812 N   0  0  0  0  0  0  0  0  0  0  0  0
   -1.0527    8.1935   13.2855 C   0  0  0  0  0  0  0  0  0  0  0  0
   -0.9155    8.5099   14.6568 C   0  0  0  0  0  0  0  0  0  0  0  0
   -1.1512    9.8156   15.1631 C   0  0  0  0  0  0  0  0  0  0  0  0
   -1.5013   10.8481   14.3086 C   0  0  0  0  0  0  0  0  0  0  0  0
   -1.6248   10.5691   12.9375 C   0  0  0  0  0  0  0  0  0  0  0  0
   -1.4126    9.2616   12.4446 C   0  0  0  0  0  0  0  0  0  0  0  0
   -2.0096   11.4984   12.1243 C   0  0  0  0  0  0  0  0  0  0  0  0
   -2.3346   12.3586   11.4123 N   0  0  0  0  0  0  0  0  0  0  0  0
   -3.0883    1.7225   11.1007 C   0  0  0  0  0  0  0  0  0  0  0  0
   -3.2858    3.3138   11.7208 S   0  0  0  0  0  0  0  0  0  0  0  0
   -1.5955    3.6372   11.7252 C   0  0  0  0  0  0  0  0  0  0  0  0
   -0.8775    2.5525   11.2667 C   0  0  0  0  0  0  0  0  0  0  0  0
   -1.7367    1.4473   11.0077 C   0  0  0  0  0  0  0  0  0  0  0  0
   -4.4739   -0.2767   12.0463 O   0  0  0  0  0  0  0  0  0  0  0  0
   -4.4484    0.6714   10.9193 S   0  0  0  0  0  0  0  0  0  0  0  0
   -4.4406   -0.0613    9.6735 O   0  0  0  0  0  0  0  0  0  0  0  0
   -5.7260    1.6066   10.9734 N   0  0  0  0  0  0  0  0  0  0  0  0
   -6.5673    1.0391   10.8708 H   0  0  0  0  0  0  0  0  0  0  0  0
   -5.6810    2.2879   10.2156 H   0  0  0  0  0  0  0  0  0  0  0  0
 19 20  2  0  0  0
 20 21  2  0  0  0
 20 22  1  0  0  0
 20 14  1  0  0  0
 14 15  1  0  0  0
 14 18  2  0  0  0
 15 16  1  0  0  0
 16 17  2  0  0  0
 16  1  1  0  0  0
 17 18  1  0  0  0
  1  2  2  0  0  0
  1  5  1  0  0  0
  2  3  1  0  0  0
  3  4  1  0  0  0
  3  6  1  0  0  0
  4  5  2  0  0  0
  6  7  1  0  0  0
  6 11  2  0  0  0
  7  8  2  0  0  0
  8  9  1  0  0  0
  9 10  2  0  0  0
 10 11  1  0  0  0
 10 12  1  0  0  0
 12 13  3  0  0  0
 22 23  1  0  0  0
 22 24  1  0  0  0
M  END
> <minimizedAffinity>
-6.60704

$$$$
