4GUE_QCT_A_401


 39 42  0  0  0  0  0  0  0  0999 V2000
   34.4131    4.5240    8.8681 C   0  0  0  0  0  0  0  0  0  0  0  0
   35.8021    4.4274    8.8742 C   0  0  0  0  0  0  0  0  0  0  0  0
   36.4704    4.4159    7.8111 O   0  0  0  0  0  0  0  0  0  0  0  0
   33.7222    4.5381   10.0879 C   0  0  0  0  0  0  0  0  0  0  0  0
   34.3361    4.4955   11.1752 O   0  0  0  0  0  0  0  0  0  0  0  0
   35.5668    4.3909   11.2667 C   0  0  0  0  0  0  0  0  0  0  0  0
   36.1173    4.3247   12.5471 C   0  0  0  0  0  0  0  0  0  0  0  0
   37.4929    4.2300   12.6950 C   0  0  0  0  0  0  0  0  0  0  0  0
   38.0439    4.1709   13.9943 O   0  0  0  0  0  0  0  0  0  0  0  0
   38.3360    4.1961   11.5778 C   0  0  0  0  0  0  0  0  0  0  0  0
   37.7752    4.2700   10.2982 C   0  0  0  0  0  0  0  0  0  0  0  0
   36.3969    4.3606   10.1403 C   0  0  0  0  0  0  0  0  0  0  0  0
   38.6324    4.2355    9.1713 O   0  0  0  0  0  0  0  0  0  0  0  0
   38.9718    4.1067   14.1073 H   0  0  0  0  0  0  0  0  0  0  0  0
   38.2728    4.2840    8.3074 H   0  0  0  0  0  0  0  0  0  0  0  0
   32.2016    4.5926   10.1917 C   0  0  0  0  0  0  0  0  0  0  0  0
   31.3737    4.2682    9.1062 C   0  0  0  0  0  0  0  0  0  0  0  0
   29.9867    4.3008    9.2716 C   0  0  0  0  0  0  0  0  0  0  0  0
   29.1167    4.0186    8.1803 O   0  0  0  0  0  0  0  0  0  0  0  0
   29.4129    4.5900   10.5060 C   0  0  0  0  0  0  0  0  0  0  0  0
   28.0227    4.5918   10.6198 O   0  0  0  0  0  0  0  0  0  0  0  0
   30.2357    4.8724   11.6074 C   0  0  0  0  0  0  0  0  0  0  0  0
   31.6270    4.8566   11.4500 C   0  0  0  0  0  0  0  0  0  0  0  0
   29.4726    3.8203    7.3365 H   0  0  0  0  0  0  0  0  0  0  0  0
   27.4912    4.4006    9.8722 H   0  0  0  0  0  0  0  0  0  0  0  0
   33.6840    4.5785    7.6419 O   0  0  0  0  0  0  0  0  0  0  0  0
   31.0423    6.2130    4.5352 O   0  0  0  0  0  0  0  0  0  0  0  0
   31.6946    6.0864    5.8138 C   0  0  0  0  0  0  0  0  0  0  0  0
   33.0696    5.4424    5.5567 C   0  0  0  0  0  0  0  0  0  0  0  0
   33.6322    6.0188    4.3725 O   0  0  0  0  0  0  0  0  0  0  0  0
   31.8112    7.4850    6.4520 C   0  0  0  0  0  0  0  0  0  0  0  0
   30.5224    7.9989    6.7742 O   0  0  0  0  0  0  0  0  0  0  0  0
   32.6338    7.3697    7.7455 C   0  0  0  0  0  0  0  0  0  0  0  0
   32.7306    8.7174    8.4823 C   0  0  0  0  0  0  0  0  0  0  0  0
   33.9091    6.9125    7.3379 O   0  0  0  0  0  0  0  0  0  0  0  0
   34.0470    5.6247    6.7450 C   0  0  0  0  0  0  0  0  0  0  0  0
   30.9636    5.3379    4.1243 H   0  0  0  0  0  0  0  0  0  0  0  0
   33.7562    6.9718    4.5042 H   0  0  0  0  0  0  0  0  0  0  0  0
   30.0859    7.4050    7.4047 H   0  0  0  0  0  0  0  0  0  0  0  0
 30 29  1  0  0  0
 27 28  1  0  0  0
 29 28  1  0  0  0
 29 36  1  0  0  0
 28 31  1  0  0  0
 31 32  1  0  0  0
 31 33  1  0  0  0
 36 35  1  0  0  0
 36 26  1  0  0  0
 35 33  1  0  0  0
 26  1  1  0  0  0
 33 34  1  0  0  0
  3  2  2  0  0  0
 19 18  1  0  0  0
  2  1  1  0  0  0
  2 12  1  0  0  0
  1  4  2  0  0  0
 13 11  1  0  0  0
 17 18  2  0  0  0
 17 16  1  0  0  0
 18 20  1  0  0  0
  4 16  1  0  0  0
  4  5  1  0  0  0
 12 11  2  0  0  0
 12  6  1  0  0  0
 16 23  2  0  0  0
 11 10  1  0  0  0
 20 21  1  0  0  0
 20 22  2  0  0  0
  5  6  1  0  0  0
  6  7  2  0  0  0
 23 22  1  0  0  0
 10  8  2  0  0  0
  7  8  1  0  0  0
  8  9  1  0  0  0
 27 37  1  0  0  0
 30 38  1  0  0  0
 32 39  1  0  0  0
 19 24  1  0  0  0
 21 25  1  0  0  0
  9 14  1  0  0  0
 13 15  1  0  0  0
M  END
> <minimizedAffinity>
-11.09371

$$$$
4GUE_QCT_A_401


 39 42  0  0  0  0  0  0  0  0999 V2000
   34.2760    4.6621    8.8860 C   0  0  0  0  0  0  0  0  0  0  0  0
   35.6581    4.5375    8.7720 C   0  0  0  0  0  0  0  0  0  0  0  0
   36.2652    4.8332    7.7133 O   0  0  0  0  0  0  0  0  0  0  0  0
   33.6551    4.3220   10.0961 C   0  0  0  0  0  0  0  0  0  0  0  0
   34.3263    3.9391   11.0779 O   0  0  0  0  0  0  0  0  0  0  0  0
   35.5550    3.7847   11.0531 C   0  0  0  0  0  0  0  0  0  0  0  0
   36.1727    3.3223   12.2156 C   0  0  0  0  0  0  0  0  0  0  0  0
   37.5494    3.1570   12.2380 C   0  0  0  0  0  0  0  0  0  0  0  0
   38.1689    2.6957   13.4207 O   0  0  0  0  0  0  0  0  0  0  0  0
   38.3269    3.4438   11.1096 C   0  0  0  0  0  0  0  0  0  0  0  0
   37.6993    3.9135    9.9509 C   0  0  0  0  0  0  0  0  0  0  0  0
   36.3192    4.0780    9.9179 C   0  0  0  0  0  0  0  0  0  0  0  0
   38.4903    4.2024    8.8121 O   0  0  0  0  0  0  0  0  0  0  0  0
   39.0983    2.5799   13.4483 H   0  0  0  0  0  0  0  0  0  0  0  0
   38.0855    4.5177    8.0282 H   0  0  0  0  0  0  0  0  0  0  0  0
   32.1462    4.3761   10.3106 C   0  0  0  0  0  0  0  0  0  0  0  0
   31.5771    5.0606   11.3952 C   0  0  0  0  0  0  0  0  0  0  0  0
   30.1862    5.1068   11.5198 C   0  0  0  0  0  0  0  0  0  0  0  0
   29.5759    5.7565   12.6302 O   0  0  0  0  0  0  0  0  0  0  0  0
   29.3555    4.5391   10.5584 C   0  0  0  0  0  0  0  0  0  0  0  0
   27.9734    4.6293   10.7229 O   0  0  0  0  0  0  0  0  0  0  0  0
   29.9174    3.8907    9.4476 C   0  0  0  0  0  0  0  0  0  0  0  0
   31.3104    3.8259    9.3197 C   0  0  0  0  0  0  0  0  0  0  0  0
   30.1083    6.1484   13.2943 H   0  0  0  0  0  0  0  0  0  0  0  0
   27.6183    5.0666   11.4717 H   0  0  0  0  0  0  0  0  0  0  0  0
   33.4826    5.1008    7.7831 O   0  0  0  0  0  0  0  0  0  0  0  0
   33.4204    7.5180    4.1150 O   0  0  0  0  0  0  0  0  0  0  0  0
   32.9269    6.6965    5.1911 C   0  0  0  0  0  0  0  0  0  0  0  0
   33.8267    6.9645    6.4118 C   0  0  0  0  0  0  0  0  0  0  0  0
   34.1059    8.3676    6.4771 O   0  0  0  0  0  0  0  0  0  0  0  0
   31.4525    7.0604    5.4571 C   0  0  0  0  0  0  0  0  0  0  0  0
   30.6375    6.6966    4.3470 O   0  0  0  0  0  0  0  0  0  0  0  0
   30.9703    6.2895    6.6967 C   0  0  0  0  0  0  0  0  0  0  0  0
   29.4796    6.5435    6.9825 C   0  0  0  0  0  0  0  0  0  0  0  0
   31.7840    6.7456    7.7603 O   0  0  0  0  0  0  0  0  0  0  0  0
   33.1859    6.4940    7.7418 C   0  0  0  0  0  0  0  0  0  0  0  0
   34.3484    7.2972    3.9390 H   0  0  0  0  0  0  0  0  0  0  0  0
   33.2764    8.8574    6.5902 H   0  0  0  0  0  0  0  0  0  0  0  0
   30.6999    5.7399    4.1998 H   0  0  0  0  0  0  0  0  0  0  0  0
 30 29  1  0  0  0
 27 28  1  0  0  0
 29 28  1  0  0  0
 29 36  1  0  0  0
 28 31  1  0  0  0
 31 32  1  0  0  0
 31 33  1  0  0  0
 36 35  1  0  0  0
 36 26  1  0  0  0
 35 33  1  0  0  0
 26  1  1  0  0  0
 33 34  1  0  0  0
  3  2  2  0  0  0
 19 18  1  0  0  0
  2  1  1  0  0  0
  2 12  1  0  0  0
  1  4  2  0  0  0
 13 11  1  0  0  0
 17 18  2  0  0  0
 17 16  1  0  0  0
 18 20  1  0  0  0
  4 16  1  0  0  0
  4  5  1  0  0  0
 12 11  2  0  0  0
 12  6  1  0  0  0
 16 23  2  0  0  0
 11 10  1  0  0  0
 20 21  1  0  0  0
 20 22  2  0  0  0
  5  6  1  0  0  0
  6  7  2  0  0  0
 23 22  1  0  0  0
 10  8  2  0  0  0
  7  8  1  0  0  0
  8  9  1  0  0  0
 27 37  1  0  0  0
 30 38  1  0  0  0
 32 39  1  0  0  0
 19 24  1  0  0  0
 21 25  1  0  0  0
  9 14  1  0  0  0
 13 15  1  0  0  0
M  END
> <minimizedAffinity>
-10.30387

$$$$
4GUE_QCT_A_401


 39 42  0  0  0  0  0  0  0  0999 V2000
   33.1473    4.9583    8.9303 C   0  0  0  0  0  0  0  0  0  0  0  0
   33.8512    4.5286   10.0522 C   0  0  0  0  0  0  0  0  0  0  0  0
   33.2851    4.3364   11.1565 O   0  0  0  0  0  0  0  0  0  0  0  0
   33.8335    5.1496    7.7229 C   0  0  0  0  0  0  0  0  0  0  0  0
   35.0569    4.9119    7.6339 O   0  0  0  0  0  0  0  0  0  0  0  0
   35.7575    4.5450    8.5871 C   0  0  0  0  0  0  0  0  0  0  0  0
   37.1179    4.3443    8.3509 C   0  0  0  0  0  0  0  0  0  0  0  0
   37.9342    3.9117    9.3851 C   0  0  0  0  0  0  0  0  0  0  0  0
   39.3091    3.7035    9.1369 O   0  0  0  0  0  0  0  0  0  0  0  0
   37.4129    3.6774   10.6631 C   0  0  0  0  0  0  0  0  0  0  0  0
   36.0463    3.8747   10.8886 C   0  0  0  0  0  0  0  0  0  0  0  0
   35.2213    4.3126    9.8588 C   0  0  0  0  0  0  0  0  0  0  0  0
   35.5238    3.6360   12.1832 O   0  0  0  0  0  0  0  0  0  0  0  0
   39.8709    3.4113    9.8276 H   0  0  0  0  0  0  0  0  0  0  0  0
   34.6108    3.7635   12.3508 H   0  0  0  0  0  0  0  0  0  0  0  0
   33.1680    5.6626    6.4503 C   0  0  0  0  0  0  0  0  0  0  0  0
   32.6364    4.7890    5.4894 C   0  0  0  0  0  0  0  0  0  0  0  0
   32.0055    5.3176    4.3605 C   0  0  0  0  0  0  0  0  0  0  0  0
   31.4923    4.4611    3.3453 O   0  0  0  0  0  0  0  0  0  0  0  0
   31.8418    6.6903    4.2006 C   0  0  0  0  0  0  0  0  0  0  0  0
   31.1888    7.1638    3.0627 O   0  0  0  0  0  0  0  0  0  0  0  0
   32.3321    7.5688    5.1793 C   0  0  0  0  0  0  0  0  0  0  0  0
   32.9789    7.0508    6.3082 C   0  0  0  0  0  0  0  0  0  0  0  0
   31.5868    3.5322    3.4241 H   0  0  0  0  0  0  0  0  0  0  0  0
   30.8688    6.5605    2.4211 H   0  0  0  0  0  0  0  0  0  0  0  0
   31.7482    5.2341    8.9998 O   0  0  0  0  0  0  0  0  0  0  0  0
   27.5981    5.4595   10.4237 O   0  0  0  0  0  0  0  0  0  0  0  0
   28.6987    5.4032    9.4953 C   0  0  0  0  0  0  0  0  0  0  0  0
   29.8279    4.6129   10.1823 C   0  0  0  0  0  0  0  0  0  0  0  0
   29.2521    3.5034   10.8813 O   0  0  0  0  0  0  0  0  0  0  0  0
   28.2171    4.7292    8.1950 C   0  0  0  0  0  0  0  0  0  0  0  0
   27.2532    5.5438    7.5346 O   0  0  0  0  0  0  0  0  0  0  0  0
   29.4240    4.5385    7.2622 C   0  0  0  0  0  0  0  0  0  0  0  0
   29.0090    3.9375    5.9076 C   0  0  0  0  0  0  0  0  0  0  0  0
   30.3034    3.6776    7.9601 O   0  0  0  0  0  0  0  0  0  0  0  0
   30.8971    4.1058    9.1821 C   0  0  0  0  0  0  0  0  0  0  0  0
   27.8903    5.8822   11.2463 H   0  0  0  0  0  0  0  0  0  0  0  0
   28.8056    2.9192   10.2487 H   0  0  0  0  0  0  0  0  0  0  0  0
   27.6513    6.3998    7.3119 H   0  0  0  0  0  0  0  0  0  0  0  0
 30 29  1  0  0  0
 27 28  1  0  0  0
 29 28  1  0  0  0
 29 36  1  0  0  0
 28 31  1  0  0  0
 31 32  1  0  0  0
 31 33  1  0  0  0
 36 35  1  0  0  0
 36 26  1  0  0  0
 35 33  1  0  0  0
 26  1  1  0  0  0
 33 34  1  0  0  0
  3  2  2  0  0  0
 19 18  1  0  0  0
  2  1  1  0  0  0
  2 12  1  0  0  0
  1  4  2  0  0  0
 13 11  1  0  0  0
 17 18  2  0  0  0
 17 16  1  0  0  0
 18 20  1  0  0  0
  4 16  1  0  0  0
  4  5  1  0  0  0
 12 11  2  0  0  0
 12  6  1  0  0  0
 16 23  2  0  0  0
 11 10  1  0  0  0
 20 21  1  0  0  0
 20 22  2  0  0  0
  5  6  1  0  0  0
  6  7  2  0  0  0
 23 22  1  0  0  0
 10  8  2  0  0  0
  7  8  1  0  0  0
  8  9  1  0  0  0
 27 37  1  0  0  0
 30 38  1  0  0  0
 32 39  1  0  0  0
 19 24  1  0  0  0
 21 25  1  0  0  0
  9 14  1  0  0  0
 13 15  1  0  0  0
M  END
> <minimizedAffinity>
-9.35863

$$$$
4GUE_QCT_A_401


 39 42  0  0  0  0  0  0  0  0999 V2000
   31.4398    4.9364    8.1429 C   0  0  0  0  0  0  0  0  0  0  0  0
   30.5945    4.4165    9.1195 C   0  0  0  0  0  0  0  0  0  0  0  0
   31.0304    3.7297   10.0762 O   0  0  0  0  0  0  0  0  0  0  0  0
   30.8949    5.7010    7.1018 C   0  0  0  0  0  0  0  0  0  0  0  0
   29.6705    5.9455    7.0563 O   0  0  0  0  0  0  0  0  0  0  0  0
   28.8505    5.5065    7.8742 C   0  0  0  0  0  0  0  0  0  0  0  0
   27.5079    5.8357    7.6848 C   0  0  0  0  0  0  0  0  0  0  0  0
   26.5596    5.3836    8.5900 C   0  0  0  0  0  0  0  0  0  0  0  0
   25.2032    5.7269    8.3962 O   0  0  0  0  0  0  0  0  0  0  0  0
   26.9303    4.5988    9.6885 C   0  0  0  0  0  0  0  0  0  0  0  0
   28.2798    4.2797    9.8738 C   0  0  0  0  0  0  0  0  0  0  0  0
   29.2368    4.7248    8.9689 C   0  0  0  0  0  0  0  0  0  0  0  0
   28.6496    3.4857   10.9868 O   0  0  0  0  0  0  0  0  0  0  0  0
   24.5531    5.4275    9.0010 H   0  0  0  0  0  0  0  0  0  0  0  0
   29.5492    3.2631   11.1253 H   0  0  0  0  0  0  0  0  0  0  0  0
   31.7242    6.2754    5.9581 C   0  0  0  0  0  0  0  0  0  0  0  0
   32.2876    5.4557    4.9683 C   0  0  0  0  0  0  0  0  0  0  0  0
   33.0070    6.0422    3.9240 C   0  0  0  0  0  0  0  0  0  0  0  0
   33.6276    5.2381    2.9260 O   0  0  0  0  0  0  0  0  0  0  0  0
   33.1244    7.4245    3.8145 C   0  0  0  0  0  0  0  0  0  0  0  0
   33.8392    7.9580    2.7422 O   0  0  0  0  0  0  0  0  0  0  0  0
   32.5261    8.2526    4.7769 C   0  0  0  0  0  0  0  0  0  0  0  0
   31.8146    7.6753    5.8359 C   0  0  0  0  0  0  0  0  0  0  0  0
   33.5664    4.3042    2.9720 H   0  0  0  0  0  0  0  0  0  0  0  0
   34.2311    7.3877    2.1103 H   0  0  0  0  0  0  0  0  0  0  0  0
   32.8436    4.6777    8.1703 O   0  0  0  0  0  0  0  0  0  0  0  0
   34.2852    5.2164   12.2853 O   0  0  0  0  0  0  0  0  0  0  0  0
   34.2841    4.7996   10.9059 C   0  0  0  0  0  0  0  0  0  0  0  0
   33.4275    5.8162   10.1286 C   0  0  0  0  0  0  0  0  0  0  0  0
   33.7202    7.1308   10.6158 O   0  0  0  0  0  0  0  0  0  0  0  0
   35.7400    4.7508   10.4012 C   0  0  0  0  0  0  0  0  0  0  0  0
   36.4686    3.7248   11.0685 O   0  0  0  0  0  0  0  0  0  0  0  0
   35.7295    4.4480    8.8941 C   0  0  0  0  0  0  0  0  0  0  0  0
   37.1546    4.3084    8.3301 C   0  0  0  0  0  0  0  0  0  0  0  0
   35.0441    5.5335    8.2996 O   0  0  0  0  0  0  0  0  0  0  0  0
   33.6696    5.7568    8.5993 C   0  0  0  0  0  0  0  0  0  0  0  0
   33.3730    5.2506   12.6135 H   0  0  0  0  0  0  0  0  0  0  0  0
   34.6564    7.3320   10.4609 H   0  0  0  0  0  0  0  0  0  0  0  0
   36.0507    2.8667   10.8955 H   0  0  0  0  0  0  0  0  0  0  0  0
 30 29  1  0  0  0
 27 28  1  0  0  0
 29 28  1  0  0  0
 29 36  1  0  0  0
 28 31  1  0  0  0
 31 32  1  0  0  0
 31 33  1  0  0  0
 36 35  1  0  0  0
 36 26  1  0  0  0
 35 33  1  0  0  0
 26  1  1  0  0  0
 33 34  1  0  0  0
  3  2  2  0  0  0
 19 18  1  0  0  0
  2  1  1  0  0  0
  2 12  1  0  0  0
  1  4  2  0  0  0
 13 11  1  0  0  0
 17 18  2  0  0  0
 17 16  1  0  0  0
 18 20  1  0  0  0
  4 16  1  0  0  0
  4  5  1  0  0  0
 12 11  2  0  0  0
 12  6  1  0  0  0
 16 23  2  0  0  0
 11 10  1  0  0  0
 20 21  1  0  0  0
 20 22  2  0  0  0
  5  6  1  0  0  0
  6  7  2  0  0  0
 23 22  1  0  0  0
 10  8  2  0  0  0
  7  8  1  0  0  0
  8  9  1  0  0  0
 27 37  1  0  0  0
 30 38  1  0  0  0
 32 39  1  0  0  0
 19 24  1  0  0  0
 21 25  1  0  0  0
  9 14  1  0  0  0
 13 15  1  0  0  0
M  END
> <minimizedAffinity>
-8.65293

$$$$
4GUE_QCT_A_401


 39 42  0  0  0  0  0  0  0  0999 V2000
   32.9445    4.7939    7.9296 C   0  0  0  0  0  0  0  0  0  0  0  0
   34.3251    4.7545    8.1060 C   0  0  0  0  0  0  0  0  0  0  0  0
   35.1171    4.7210    7.1321 O   0  0  0  0  0  0  0  0  0  0  0  0
   32.1110    4.8363    9.0560 C   0  0  0  0  0  0  0  0  0  0  0  0
   32.5900    4.8693   10.2095 O   0  0  0  0  0  0  0  0  0  0  0  0
   33.8035    4.8194   10.4522 C   0  0  0  0  0  0  0  0  0  0  0  0
   34.1970    4.8351   11.7907 C   0  0  0  0  0  0  0  0  0  0  0  0
   35.5471    4.8036   12.1060 C   0  0  0  0  0  0  0  0  0  0  0  0
   35.9385    4.8273   13.4631 O   0  0  0  0  0  0  0  0  0  0  0  0
   36.5198    4.7524   11.1004 C   0  0  0  0  0  0  0  0  0  0  0  0
   36.1157    4.7439    9.7611 C   0  0  0  0  0  0  0  0  0  0  0  0
   34.7643    4.7708    9.4357 C   0  0  0  0  0  0  0  0  0  0  0  0
   37.1036    4.6923    8.7475 O   0  0  0  0  0  0  0  0  0  0  0  0
   36.8476    4.8064   13.6889 H   0  0  0  0  0  0  0  0  0  0  0  0
   36.8497    4.6860    7.8456 H   0  0  0  0  0  0  0  0  0  0  0  0
   30.5881    4.8334    8.9751 C   0  0  0  0  0  0  0  0  0  0  0  0
   29.7994    4.1289    9.8973 C   0  0  0  0  0  0  0  0  0  0  0  0
   28.4074    4.1930    9.7949 C   0  0  0  0  0  0  0  0  0  0  0  0
   27.5772    3.4572   10.6876 O   0  0  0  0  0  0  0  0  0  0  0  0
   27.7895    4.9886    8.8348 C   0  0  0  0  0  0  0  0  0  0  0  0
   26.3961    5.0298    8.7880 O   0  0  0  0  0  0  0  0  0  0  0  0
   28.5722    5.7308    7.9367 C   0  0  0  0  0  0  0  0  0  0  0  0
   29.9683    5.6630    8.0208 C   0  0  0  0  0  0  0  0  0  0  0  0
   27.9633    2.9126   11.3450 H   0  0  0  0  0  0  0  0  0  0  0  0
   25.8918    4.5267    9.3967 H   0  0  0  0  0  0  0  0  0  0  0  0
   32.3677    4.7616    6.6240 O   0  0  0  0  0  0  0  0  0  0  0  0
   30.8392    5.4204    2.5581 O   0  0  0  0  0  0  0  0  0  0  0  0
   31.0875    5.6657    3.9562 C   0  0  0  0  0  0  0  0  0  0  0  0
   32.4342    5.0016    4.2981 C   0  0  0  0  0  0  0  0  0  0  0  0
   33.3488    5.2373    3.2215 O   0  0  0  0  0  0  0  0  0  0  0  0
   31.1057    7.1884    4.1971 C   0  0  0  0  0  0  0  0  0  0  0  0
   29.8144    7.7472    3.9754 O   0  0  0  0  0  0  0  0  0  0  0  0
   31.5134    7.4519    5.6558 C   0  0  0  0  0  0  0  0  0  0  0  0
   31.4810    8.9527    5.9951 C   0  0  0  0  0  0  0  0  0  0  0  0
   32.8199    6.9236    5.7799 O   0  0  0  0  0  0  0  0  0  0  0  0
   33.0391    5.5246    5.6252 C   0  0  0  0  0  0  0  0  0  0  0  0
   30.8257    4.4643    2.3950 H   0  0  0  0  0  0  0  0  0  0  0  0
   33.4906    6.1916    3.1208 H   0  0  0  0  0  0  0  0  0  0  0  0
   29.1781    7.3434    4.5861 H   0  0  0  0  0  0  0  0  0  0  0  0
 30 29  1  0  0  0
 27 28  1  0  0  0
 29 28  1  0  0  0
 29 36  1  0  0  0
 28 31  1  0  0  0
 31 32  1  0  0  0
 31 33  1  0  0  0
 36 35  1  0  0  0
 36 26  1  0  0  0
 35 33  1  0  0  0
 26  1  1  0  0  0
 33 34  1  0  0  0
  3  2  2  0  0  0
 19 18  1  0  0  0
  2  1  1  0  0  0
  2 12  1  0  0  0
  1  4  2  0  0  0
 13 11  1  0  0  0
 17 18  2  0  0  0
 17 16  1  0  0  0
 18 20  1  0  0  0
  4 16  1  0  0  0
  4  5  1  0  0  0
 12 11  2  0  0  0
 12  6  1  0  0  0
 16 23  2  0  0  0
 11 10  1  0  0  0
 20 21  1  0  0  0
 20 22  2  0  0  0
  5  6  1  0  0  0
  6  7  2  0  0  0
 23 22  1  0  0  0
 10  8  2  0  0  0
  7  8  1  0  0  0
  8  9  1  0  0  0
 27 37  1  0  0  0
 30 38  1  0  0  0
 32 39  1  0  0  0
 19 24  1  0  0  0
 21 25  1  0  0  0
  9 14  1  0  0  0
 13 15  1  0  0  0
M  END
> <minimizedAffinity>
-8.60859

$$$$
4GUE_QCT_A_401


 39 42  0  0  0  0  0  0  0  0999 V2000
   32.8231    5.4101    8.1448 C   0  0  0  0  0  0  0  0  0  0  0  0
   33.3391    4.9734    9.3621 C   0  0  0  0  0  0  0  0  0  0  0  0
   32.6210    4.8685   10.3870 O   0  0  0  0  0  0  0  0  0  0  0  0
   33.6732    5.5010    7.0337 C   0  0  0  0  0  0  0  0  0  0  0  0
   34.8748    5.1682    7.1144 O   0  0  0  0  0  0  0  0  0  0  0  0
   35.4143    4.7877    8.1623 C   0  0  0  0  0  0  0  0  0  0  0  0
   36.7734    4.4757    8.1142 C   0  0  0  0  0  0  0  0  0  0  0  0
   37.4114    4.0242    9.2596 C   0  0  0  0  0  0  0  0  0  0  0  0
   38.7858    3.7031    9.2018 O   0  0  0  0  0  0  0  0  0  0  0  0
   36.7118    3.8808   10.4638 C   0  0  0  0  0  0  0  0  0  0  0  0
   35.3478    4.1895   10.5005 C   0  0  0  0  0  0  0  0  0  0  0  0
   34.7009    4.6471    9.3582 C   0  0  0  0  0  0  0  0  0  0  0  0
   34.6445    4.0425   11.7211 O   0  0  0  0  0  0  0  0  0  0  0  0
   39.2281    3.3970    9.9690 H   0  0  0  0  0  0  0  0  0  0  0  0
   33.7306    4.2451   11.7625 H   0  0  0  0  0  0  0  0  0  0  0  0
   33.2214    6.0117    5.6696 C   0  0  0  0  0  0  0  0  0  0  0  0
   32.8848    5.1362    4.6260 C   0  0  0  0  0  0  0  0  0  0  0  0
   32.4422    5.6619    3.4095 C   0  0  0  0  0  0  0  0  0  0  0  0
   32.1325    4.8045    2.3156 O   0  0  0  0  0  0  0  0  0  0  0  0
   32.2721    7.0319    3.2336 C   0  0  0  0  0  0  0  0  0  0  0  0
   31.8107    7.5019    2.0041 O   0  0  0  0  0  0  0  0  0  0  0  0
   32.5649    7.9110    4.2878 C   0  0  0  0  0  0  0  0  0  0  0  0
   33.0228    7.3963    5.5070 C   0  0  0  0  0  0  0  0  0  0  0  0
   32.2367    3.8775    2.4029 H   0  0  0  0  0  0  0  0  0  0  0  0
   31.6209    6.8983    1.3131 H   0  0  0  0  0  0  0  0  0  0  0  0
   31.4534    5.7933    8.0204 O   0  0  0  0  0  0  0  0  0  0  0  0
   27.1709    6.0293    8.9723 O   0  0  0  0  0  0  0  0  0  0  0  0
   28.3796    6.1025    8.1911 C   0  0  0  0  0  0  0  0  0  0  0  0
   29.3620    5.0752    8.7835 C   0  0  0  0  0  0  0  0  0  0  0  0
   28.6377    3.8845    9.1133 O   0  0  0  0  0  0  0  0  0  0  0  0
   28.0367    5.8053    6.7176 C   0  0  0  0  0  0  0  0  0  0  0  0
   27.2156    6.8353    6.1756 O   0  0  0  0  0  0  0  0  0  0  0  0
   29.3436    5.7403    5.9107 C   0  0  0  0  0  0  0  0  0  0  0  0
   29.0779    5.5210    4.4108 C   0  0  0  0  0  0  0  0  0  0  0  0
   30.0735    4.6639    6.4676 O   0  0  0  0  0  0  0  0  0  0  0  0
   30.5238    4.7325    7.8172 C   0  0  0  0  0  0  0  0  0  0  0  0
   27.3753    6.2148    9.9022 H   0  0  0  0  0  0  0  0  0  0  0  0
   28.2465    3.5106    8.3083 H   0  0  0  0  0  0  0  0  0  0  0  0
   27.6871    7.6819    6.2204 H   0  0  0  0  0  0  0  0  0  0  0  0
 30 29  1  0  0  0
 27 28  1  0  0  0
 29 28  1  0  0  0
 29 36  1  0  0  0
 28 31  1  0  0  0
 31 32  1  0  0  0
 31 33  1  0  0  0
 36 35  1  0  0  0
 36 26  1  0  0  0
 35 33  1  0  0  0
 26  1  1  0  0  0
 33 34  1  0  0  0
  3  2  2  0  0  0
 19 18  1  0  0  0
  2  1  1  0  0  0
  2 12  1  0  0  0
  1  4  2  0  0  0
 13 11  1  0  0  0
 17 18  2  0  0  0
 17 16  1  0  0  0
 18 20  1  0  0  0
  4 16  1  0  0  0
  4  5  1  0  0  0
 12 11  2  0  0  0
 12  6  1  0  0  0
 16 23  2  0  0  0
 11 10  1  0  0  0
 20 21  1  0  0  0
 20 22  2  0  0  0
  5  6  1  0  0  0
  6  7  2  0  0  0
 23 22  1  0  0  0
 10  8  2  0  0  0
  7  8  1  0  0  0
  8  9  1  0  0  0
 27 37  1  0  0  0
 30 38  1  0  0  0
 32 39  1  0  0  0
 19 24  1  0  0  0
 21 25  1  0  0  0
  9 14  1  0  0  0
 13 15  1  0  0  0
M  END
> <minimizedAffinity>
-8.56593

$$$$
4GUE_QCT_A_401


 39 42  0  0  0  0  0  0  0  0999 V2000
   29.2029    5.1072    8.7041 C   0  0  0  0  0  0  0  0  0  0  0  0
   27.8789    4.6975    8.5709 C   0  0  0  0  0  0  0  0  0  0  0  0
   27.1059    5.2165    7.7283 O   0  0  0  0  0  0  0  0  0  0  0  0
   30.0196    4.4856    9.6591 C   0  0  0  0  0  0  0  0  0  0  0  0
   29.5848    3.5530   10.3678 O   0  0  0  0  0  0  0  0  0  0  0  0
   28.4171    3.1424   10.3239 C   0  0  0  0  0  0  0  0  0  0  0  0
   28.0600    2.1124   11.1948 C   0  0  0  0  0  0  0  0  0  0  0  0
   26.7688    1.6078   11.1627 C   0  0  0  0  0  0  0  0  0  0  0  0
   26.4163    0.5600   12.0422 O   0  0  0  0  0  0  0  0  0  0  0  0
   25.8182    2.1198   10.2716 C   0  0  0  0  0  0  0  0  0  0  0  0
   26.1875    3.1477    9.3974 C   0  0  0  0  0  0  0  0  0  0  0  0
   27.4785    3.6629    9.4257 C   0  0  0  0  0  0  0  0  0  0  0  0
   25.2221    3.6621    8.4977 O   0  0  0  0  0  0  0  0  0  0  0  0
   25.5470    0.2106   12.0300 H   0  0  0  0  0  0  0  0  0  0  0  0
   25.4534    4.3506    7.9057 H   0  0  0  0  0  0  0  0  0  0  0  0
   31.4669    4.8903    9.9185 C   0  0  0  0  0  0  0  0  0  0  0  0
   31.8425    6.2328   10.0786 C   0  0  0  0  0  0  0  0  0  0  0  0
   33.1779    6.5405   10.3508 C   0  0  0  0  0  0  0  0  0  0  0  0
   33.6019    7.8939   10.4774 O   0  0  0  0  0  0  0  0  0  0  0  0
   34.1289    5.5395   10.5250 C   0  0  0  0  0  0  0  0  0  0  0  0
   35.4448    5.9019   10.8126 O   0  0  0  0  0  0  0  0  0  0  0  0
   33.7515    4.1926   10.4098 C   0  0  0  0  0  0  0  0  0  0  0  0
   32.4186    3.8728   10.1231 C   0  0  0  0  0  0  0  0  0  0  0  0
   32.9852    8.5904   10.3657 H   0  0  0  0  0  0  0  0  0  0  0  0
   35.6762    6.8070   10.8853 H   0  0  0  0  0  0  0  0  0  0  0  0
   29.7296    6.1672    7.9058 O   0  0  0  0  0  0  0  0  0  0  0  0
   29.2329    8.1885    4.0367 O   0  0  0  0  0  0  0  0  0  0  0  0
   29.8029    7.8648    5.3200 C   0  0  0  0  0  0  0  0  0  0  0  0
   29.4958    6.3798    5.5880 C   0  0  0  0  0  0  0  0  0  0  0  0
   29.6779    5.6465    4.3713 O   0  0  0  0  0  0  0  0  0  0  0  0
   31.3168    8.1531    5.2774 C   0  0  0  0  0  0  0  0  0  0  0  0
   31.5582    9.5500    5.1378 O   0  0  0  0  0  0  0  0  0  0  0  0
   31.9475    7.6728    6.5945 C   0  0  0  0  0  0  0  0  0  0  0  0
   33.4508    7.9959    6.6586 C   0  0  0  0  0  0  0  0  0  0  0  0
   31.7183    6.2772    6.6314 O   0  0  0  0  0  0  0  0  0  0  0  0
   30.3866    5.7766    6.7031 C   0  0  0  0  0  0  0  0  0  0  0  0
   28.2795    8.0106    4.0523 H   0  0  0  0  0  0  0  0  0  0  0  0
   30.6004    5.7248    4.0816 H   0  0  0  0  0  0  0  0  0  0  0  0
   31.1730   10.0217    5.8928 H   0  0  0  0  0  0  0  0  0  0  0  0
 30 29  1  0  0  0
 27 28  1  0  0  0
 29 28  1  0  0  0
 29 36  1  0  0  0
 28 31  1  0  0  0
 31 32  1  0  0  0
 31 33  1  0  0  0
 36 35  1  0  0  0
 36 26  1  0  0  0
 35 33  1  0  0  0
 26  1  1  0  0  0
 33 34  1  0  0  0
  3  2  2  0  0  0
 19 18  1  0  0  0
  2  1  1  0  0  0
  2 12  1  0  0  0
  1  4  2  0  0  0
 13 11  1  0  0  0
 17 18  2  0  0  0
 17 16  1  0  0  0
 18 20  1  0  0  0
  4 16  1  0  0  0
  4  5  1  0  0  0
 12 11  2  0  0  0
 12  6  1  0  0  0
 16 23  2  0  0  0
 11 10  1  0  0  0
 20 21  1  0  0  0
 20 22  2  0  0  0
  5  6  1  0  0  0
  6  7  2  0  0  0
 23 22  1  0  0  0
 10  8  2  0  0  0
  7  8  1  0  0  0
  8  9  1  0  0  0
 27 37  1  0  0  0
 30 38  1  0  0  0
 32 39  1  0  0  0
 19 24  1  0  0  0
 21 25  1  0  0  0
  9 14  1  0  0  0
 13 15  1  0  0  0
M  END
> <minimizedAffinity>
-8.53410

$$$$
4GUE_QCT_A_401


 39 42  0  0  0  0  0  0  0  0999 V2000
   32.6811    4.7927    7.9528 C   0  0  0  0  0  0  0  0  0  0  0  0
   34.0650    4.7530    8.1012 C   0  0  0  0  0  0  0  0  0  0  0  0
   34.8363    4.6934    7.1121 O   0  0  0  0  0  0  0  0  0  0  0  0
   31.8715    4.8651    9.0950 C   0  0  0  0  0  0  0  0  0  0  0  0
   32.3746    4.9245   10.2371 O   0  0  0  0  0  0  0  0  0  0  0  0
   33.5928    4.8766   10.4555 C   0  0  0  0  0  0  0  0  0  0  0  0
   34.0144    4.9235   11.7847 C   0  0  0  0  0  0  0  0  0  0  0  0
   35.3706    4.8953   12.0725 C   0  0  0  0  0  0  0  0  0  0  0  0
   35.7905    4.9506   13.4201 O   0  0  0  0  0  0  0  0  0  0  0  0
   36.3219    4.8165   11.0483 C   0  0  0  0  0  0  0  0  0  0  0  0
   35.8898    4.7768    9.7183 C   0  0  0  0  0  0  0  0  0  0  0  0
   34.5320    4.8002    9.4207 C   0  0  0  0  0  0  0  0  0  0  0  0
   36.8562    4.6974    8.6859 O   0  0  0  0  0  0  0  0  0  0  0  0
   36.7041    4.9323   13.6273 H   0  0  0  0  0  0  0  0  0  0  0  0
   36.5833    4.6700    7.7899 H   0  0  0  0  0  0  0  0  0  0  0  0
   30.3472    4.8653    9.0459 C   0  0  0  0  0  0  0  0  0  0  0  0
   29.5808    4.0129    9.8552 C   0  0  0  0  0  0  0  0  0  0  0  0
   28.1867    4.0836    9.7934 C   0  0  0  0  0  0  0  0  0  0  0  0
   27.3782    3.2049   10.5692 O   0  0  0  0  0  0  0  0  0  0  0  0
   27.5458    5.0224    8.9907 C   0  0  0  0  0  0  0  0  0  0  0  0
   26.1516    5.0613    8.9799 O   0  0  0  0  0  0  0  0  0  0  0  0
   28.3066    5.9079    8.2116 C   0  0  0  0  0  0  0  0  0  0  0  0
   29.7045    5.8367    8.2547 C   0  0  0  0  0  0  0  0  0  0  0  0
   27.7801    2.5619   11.1197 H   0  0  0  0  0  0  0  0  0  0  0  0
   25.6621    4.4612    9.5074 H   0  0  0  0  0  0  0  0  0  0  0  0
   32.0769    4.7306    6.6607 O   0  0  0  0  0  0  0  0  0  0  0  0
   33.6589    5.3891    2.6152 O   0  0  0  0  0  0  0  0  0  0  0  0
   32.7090    5.0705    3.6510 C   0  0  0  0  0  0  0  0  0  0  0  0
   33.1243    5.8648    4.9032 C   0  0  0  0  0  0  0  0  0  0  0  0
   33.5291    7.1782    4.5004 O   0  0  0  0  0  0  0  0  0  0  0  0
   31.2960    5.4441    3.1603 C   0  0  0  0  0  0  0  0  0  0  0  0
   30.9067    4.6129    2.0710 O   0  0  0  0  0  0  0  0  0  0  0  0
   30.3029    5.2401    4.3159 C   0  0  0  0  0  0  0  0  0  0  0  0
   28.8541    5.5216    3.8796 C   0  0  0  0  0  0  0  0  0  0  0  0
   30.7192    6.1357    5.3289 O   0  0  0  0  0  0  0  0  0  0  0  0
   31.9884    5.9640    5.9524 C   0  0  0  0  0  0  0  0  0  0  0  0
   34.5524    5.1579    2.9137 H   0  0  0  0  0  0  0  0  0  0  0  0
   32.7823    7.6318    4.0793 H   0  0  0  0  0  0  0  0  0  0  0  0
   30.9015    3.6861    2.3573 H   0  0  0  0  0  0  0  0  0  0  0  0
 30 29  1  0  0  0
 27 28  1  0  0  0
 29 28  1  0  0  0
 29 36  1  0  0  0
 28 31  1  0  0  0
 31 32  1  0  0  0
 31 33  1  0  0  0
 36 35  1  0  0  0
 36 26  1  0  0  0
 35 33  1  0  0  0
 26  1  1  0  0  0
 33 34  1  0  0  0
  3  2  2  0  0  0
 19 18  1  0  0  0
  2  1  1  0  0  0
  2 12  1  0  0  0
  1  4  2  0  0  0
 13 11  1  0  0  0
 17 18  2  0  0  0
 17 16  1  0  0  0
 18 20  1  0  0  0
  4 16  1  0  0  0
  4  5  1  0  0  0
 12 11  2  0  0  0
 12  6  1  0  0  0
 16 23  2  0  0  0
 11 10  1  0  0  0
 20 21  1  0  0  0
 20 22  2  0  0  0
  5  6  1  0  0  0
  6  7  2  0  0  0
 23 22  1  0  0  0
 10  8  2  0  0  0
  7  8  1  0  0  0
  8  9  1  0  0  0
 27 37  1  0  0  0
 30 38  1  0  0  0
 32 39  1  0  0  0
 19 24  1  0  0  0
 21 25  1  0  0  0
  9 14  1  0  0  0
 13 15  1  0  0  0
M  END
> <minimizedAffinity>
-8.24922

$$$$
4GUE_QCT_A_401


 39 42  0  0  0  0  0  0  0  0999 V2000
   31.7796    5.2572    6.8244 C   0  0  0  0  0  0  0  0  0  0  0  0
   31.8840    4.8818    8.1611 C   0  0  0  0  0  0  0  0  0  0  0  0
   30.8703    4.7018    8.8802 O   0  0  0  0  0  0  0  0  0  0  0  0
   32.9477    5.4374    6.0704 C   0  0  0  0  0  0  0  0  0  0  0  0
   34.0743    5.2371    6.5721 O   0  0  0  0  0  0  0  0  0  0  0  0
   34.2536    4.9196    7.7558 C   0  0  0  0  0  0  0  0  0  0  0  0
   35.5696    4.7568    8.1899 C   0  0  0  0  0  0  0  0  0  0  0  0
   35.8142    4.3796    9.5018 C   0  0  0  0  0  0  0  0  0  0  0  0
   37.1487    4.2093    9.9324 O   0  0  0  0  0  0  0  0  0  0  0  0
   34.7596    4.1637   10.3969 C   0  0  0  0  0  0  0  0  0  0  0  0
   33.4433    4.3228    9.9505 C   0  0  0  0  0  0  0  0  0  0  0  0
   33.1888    4.7051    8.6383 C   0  0  0  0  0  0  0  0  0  0  0  0
   32.3800    4.1030   10.8599 O   0  0  0  0  0  0  0  0  0  0  0  0
   37.3269    3.9547   10.8164 H   0  0  0  0  0  0  0  0  0  0  0  0
   31.4926    4.2053   10.5768 H   0  0  0  0  0  0  0  0  0  0  0  0
   32.9464    5.8932    4.6151 C   0  0  0  0  0  0  0  0  0  0  0  0
   32.6683    5.0078    3.5626 C   0  0  0  0  0  0  0  0  0  0  0  0
   32.6454    5.4909    2.2518 C   0  0  0  0  0  0  0  0  0  0  0  0
   32.4083    4.6126    1.1563 O   0  0  0  0  0  0  0  0  0  0  0  0
   32.8336    6.8419    1.9763 C   0  0  0  0  0  0  0  0  0  0  0  0
   32.7833    7.2735    0.6509 O   0  0  0  0  0  0  0  0  0  0  0  0
   33.0687    7.7410    3.0281 C   0  0  0  0  0  0  0  0  0  0  0  0
   33.1080    7.2658    4.3448 C   0  0  0  0  0  0  0  0  0  0  0  0
   32.2777    3.6975    1.3094 H   0  0  0  0  0  0  0  0  0  0  0  0
   32.6252    6.6571   -0.0369 H   0  0  0  0  0  0  0  0  0  0  0  0
   30.5063    5.4894    6.2219 O   0  0  0  0  0  0  0  0  0  0  0  0
   27.3949    7.0643    3.5497 O   0  0  0  0  0  0  0  0  0  0  0  0
   27.9860    6.4895    4.7315 C   0  0  0  0  0  0  0  0  0  0  0  0
   29.4299    7.0181    4.8161 C   0  0  0  0  0  0  0  0  0  0  0  0
   29.4330    8.4043    4.4564 O   0  0  0  0  0  0  0  0  0  0  0  0
   27.1401    6.8928    5.9557 C   0  0  0  0  0  0  0  0  0  0  0  0
   25.8489    6.2948    5.8929 O   0  0  0  0  0  0  0  0  0  0  0  0
   27.8495    6.4024    7.2283 C   0  0  0  0  0  0  0  0  0  0  0  0
   27.0253    6.7027    8.4928 C   0  0  0  0  0  0  0  0  0  0  0  0
   29.0909    7.0807    7.2492 O   0  0  0  0  0  0  0  0  0  0  0  0
   30.0506    6.8396    6.2245 C   0  0  0  0  0  0  0  0  0  0  0  0
   27.9197    6.8166    2.7725 H   0  0  0  0  0  0  0  0  0  0  0  0
   28.8837    8.9020    5.0821 H   0  0  0  0  0  0  0  0  0  0  0  0
   25.9399    5.3292    5.8825 H   0  0  0  0  0  0  0  0  0  0  0  0
 30 29  1  0  0  0
 27 28  1  0  0  0
 29 28  1  0  0  0
 29 36  1  0  0  0
 28 31  1  0  0  0
 31 32  1  0  0  0
 31 33  1  0  0  0
 36 35  1  0  0  0
 36 26  1  0  0  0
 35 33  1  0  0  0
 26  1  1  0  0  0
 33 34  1  0  0  0
  3  2  2  0  0  0
 19 18  1  0  0  0
  2  1  1  0  0  0
  2 12  1  0  0  0
  1  4  2  0  0  0
 13 11  1  0  0  0
 17 18  2  0  0  0
 17 16  1  0  0  0
 18 20  1  0  0  0
  4 16  1  0  0  0
  4  5  1  0  0  0
 12 11  2  0  0  0
 12  6  1  0  0  0
 16 23  2  0  0  0
 11 10  1  0  0  0
 20 21  1  0  0  0
 20 22  2  0  0  0
  5  6  1  0  0  0
  6  7  2  0  0  0
 23 22  1  0  0  0
 10  8  2  0  0  0
  7  8  1  0  0  0
  8  9  1  0  0  0
 27 37  1  0  0  0
 30 38  1  0  0  0
 32 39  1  0  0  0
 19 24  1  0  0  0
 21 25  1  0  0  0
  9 14  1  0  0  0
 13 15  1  0  0  0
M  END
> <minimizedAffinity>
-8.12310

$$$$
