4PFU_MAB_A_602


 31 32  0  0  0  0  0  0  0  0999 V2000
  -36.3461  -55.4290   15.6231 O   0  0  0  0  0  0  0  0  0  0  0  0
  -35.8241  -57.8225   19.0623 C   0  0  0  0  0  0  0  0  0  0  0  0
  -34.9971  -58.1977   17.8555 C   0  0  0  0  0  0  0  0  0  0  0  0
  -34.9610  -57.1097   16.8113 C   0  0  0  0  0  0  0  0  0  0  0  0
  -36.3497  -56.5819   16.5177 C   0  0  0  0  0  0  0  0  0  0  0  0
  -36.9616  -56.1379   17.8144 C   0  0  0  0  0  0  0  0  0  0  0  0
  -35.5977  -59.3486   17.2592 O   0  0  0  0  0  0  0  0  0  0  0  0
  -34.3237  -57.6424   15.6378 O   0  0  0  0  0  0  0  0  0  0  0  0
  -37.1568  -57.3370   18.6353 O   0  0  0  0  0  0  0  0  0  0  0  0
  -36.0248  -58.8906   19.9024 O   0  0  0  0  0  0  0  0  0  0  0  0
  -36.5015  -59.1338   16.9801 H   0  0  0  0  0  0  0  0  0  0  0  0
  -34.8307  -58.4022   15.3113 H   0  0  0  0  0  0  0  0  0  0  0  0
  -36.5174  -59.5824   19.4338 H   0  0  0  0  0  0  0  0  0  0  0  0
  -38.2764  -55.4075   17.6515 C   0  0  0  0  0  0  0  0  0  0  0  0
  -39.1054  -56.1364   16.7651 O   0  0  0  0  0  0  0  0  0  0  0  0
  -38.6660  -56.2170   15.9041 H   0  0  0  0  0  0  0  0  0  0  0  0
  -36.7010  -55.7924   14.3145 C   0  0  0  0  0  0  0  0  0  0  0  0
  -37.5798  -54.7218   13.7054 C   0  0  0  0  0  0  0  0  0  0  0  0
  -37.7999  -54.9613   12.2509 C   0  0  0  0  0  0  0  0  0  0  0  0
  -36.5218  -55.1789   11.4955 C   0  0  0  0  0  0  0  0  0  0  0  0
  -35.7247  -56.2876   12.1676 C   0  0  0  0  0  0  0  0  0  0  0  0
  -36.9098  -53.4325   13.8462 O   0  0  0  0  0  0  0  0  0  0  0  0
  -38.5244  -53.8149   11.6908 O   0  0  0  0  0  0  0  0  0  0  0  0
  -36.8356  -55.6053   10.1738 O   0  0  0  0  0  0  0  0  0  0  0  0
  -35.4486  -55.9205   13.5485 O   0  0  0  0  0  0  0  0  0  0  0  0
  -36.0609  -53.4564   13.3775 H   0  0  0  0  0  0  0  0  0  0  0  0
  -37.9895  -53.0124   11.7945 H   0  0  0  0  0  0  0  0  0  0  0  0
  -37.3464  -56.4290   10.2125 H   0  0  0  0  0  0  0  0  0  0  0  0
  -34.4251  -56.5265   11.4531 C   0  0  0  0  0  0  0  0  0  0  0  0
  -34.0172  -55.3177   10.8041 O   0  0  0  0  0  0  0  0  0  0  0  0
  -34.6969  -55.0476   10.1669 H   0  0  0  0  0  0  0  0  0  0  0  0
  2  3  1  0  0  0
  2  9  1  0  0  0
  2 10  1  0  0  0
  3  4  1  0  0  0
  3  7  1  0  0  0
  4  5  1  0  0  0
  4  8  1  0  0  0
  5  6  1  0  0  0
  5  1  1  0  0  0
  6 14  1  0  0  0
  6  9  1  0  0  0
 14 15  1  0  0  0
  1 17  1  0  0  0
 17 18  1  0  0  0
 17 25  1  0  0  0
 18 19  1  0  0  0
 18 22  1  0  0  0
 19 20  1  0  0  0
 19 23  1  0  0  0
 20 21  1  0  0  0
 20 24  1  0  0  0
 21 29  1  0  0  0
 21 25  1  0  0  0
 29 30  1  0  0  0
  7 11  1  0  0  0
  8 12  1  0  0  0
 15 16  1  0  0  0
 22 26  1  0  0  0
 23 27  1  0  0  0
 24 28  1  0  0  0
 30 31  1  0  0  0
 10 13  1  0  0  0
M  END
> <minimizedAffinity>
-9.58122

$$$$
4PFU_MAB_A_602


 31 32  0  0  0  0  0  0  0  0999 V2000
  -36.7512  -55.5083   15.1193 O   0  0  0  0  0  0  0  0  0  0  0  0
  -34.2367  -57.8178   17.6039 C   0  0  0  0  0  0  0  0  0  0  0  0
  -34.0975  -58.0444   16.1172 C   0  0  0  0  0  0  0  0  0  0  0  0
  -34.7438  -56.9553   15.2976 C   0  0  0  0  0  0  0  0  0  0  0  0
  -36.1447  -56.6548   15.7881 C   0  0  0  0  0  0  0  0  0  0  0  0
  -36.0645  -56.3266   17.2505 C   0  0  0  0  0  0  0  0  0  0  0  0
  -34.7577  -59.2714   15.8019 O   0  0  0  0  0  0  0  0  0  0  0  0
  -34.7279  -57.3681   13.9205 O   0  0  0  0  0  0  0  0  0  0  0  0
  -35.6522  -57.5489   17.9477 O   0  0  0  0  0  0  0  0  0  0  0  0
  -33.8369  -58.9118   18.3320 O   0  0  0  0  0  0  0  0  0  0  0  0
  -35.6971  -59.2020   16.0338 H   0  0  0  0  0  0  0  0  0  0  0  0
  -35.2236  -58.1964   13.8256 H   0  0  0  0  0  0  0  0  0  0  0  0
  -34.4018  -59.6695   18.1137 H   0  0  0  0  0  0  0  0  0  0  0  0
  -37.3631  -55.8156   17.8346 C   0  0  0  0  0  0  0  0  0  0  0  0
  -37.2636  -55.8031   19.2467 O   0  0  0  0  0  0  0  0  0  0  0  0
  -37.0915  -56.7025   19.5667 H   0  0  0  0  0  0  0  0  0  0  0  0
  -37.8669  -55.8885   14.3570 C   0  0  0  0  0  0  0  0  0  0  0  0
  -38.6794  -54.6655   13.9917 C   0  0  0  0  0  0  0  0  0  0  0  0
  -39.7469  -54.9963   13.0056 C   0  0  0  0  0  0  0  0  0  0  0  0
  -39.2271  -55.7406   11.8109 C   0  0  0  0  0  0  0  0  0  0  0  0
  -38.4506  -56.9625   12.2801 C   0  0  0  0  0  0  0  0  0  0  0  0
  -37.7930  -53.6843   13.3732 O   0  0  0  0  0  0  0  0  0  0  0  0
  -40.3934  -53.7505   12.5781 O   0  0  0  0  0  0  0  0  0  0  0  0
  -40.3317  -56.1953   11.0360 O   0  0  0  0  0  0  0  0  0  0  0  0
  -37.3541  -56.5420   13.1398 O   0  0  0  0  0  0  0  0  0  0  0  0
  -37.4026  -54.0624   12.5698 H   0  0  0  0  0  0  0  0  0  0  0  0
  -39.7397  -53.1789   12.1459 H   0  0  0  0  0  0  0  0  0  0  0  0
  -40.8885  -56.7769   11.5770 H   0  0  0  0  0  0  0  0  0  0  0  0
  -37.8948  -57.7287   11.1137 C   0  0  0  0  0  0  0  0  0  0  0  0
  -37.2679  -56.8150   10.2076 O   0  0  0  0  0  0  0  0  0  0  0  0
  -37.9216  -56.1702    9.8948 H   0  0  0  0  0  0  0  0  0  0  0  0
  2  3  1  0  0  0
  2  9  1  0  0  0
  2 10  1  0  0  0
  3  4  1  0  0  0
  3  7  1  0  0  0
  4  5  1  0  0  0
  4  8  1  0  0  0
  5  6  1  0  0  0
  5  1  1  0  0  0
  6 14  1  0  0  0
  6  9  1  0  0  0
 14 15  1  0  0  0
  1 17  1  0  0  0
 17 18  1  0  0  0
 17 25  1  0  0  0
 18 19  1  0  0  0
 18 22  1  0  0  0
 19 20  1  0  0  0
 19 23  1  0  0  0
 20 21  1  0  0  0
 20 24  1  0  0  0
 21 29  1  0  0  0
 21 25  1  0  0  0
 29 30  1  0  0  0
  7 11  1  0  0  0
  8 12  1  0  0  0
 15 16  1  0  0  0
 22 26  1  0  0  0
 23 27  1  0  0  0
 24 28  1  0  0  0
 30 31  1  0  0  0
 10 13  1  0  0  0
M  END
> <minimizedAffinity>
-8.89795

$$$$
4PFU_MAB_A_602


 31 32  0  0  0  0  0  0  0  0999 V2000
  -35.9412  -57.4915   14.8806 O   0  0  0  0  0  0  0  0  0  0  0  0
  -37.5905  -56.2456   18.5627 C   0  0  0  0  0  0  0  0  0  0  0  0
  -38.3825  -55.8986   17.3244 C   0  0  0  0  0  0  0  0  0  0  0  0
  -37.9347  -56.6720   16.1091 C   0  0  0  0  0  0  0  0  0  0  0  0
  -36.4285  -56.6353   15.9573 C   0  0  0  0  0  0  0  0  0  0  0  0
  -35.8204  -57.1362   17.2349 C   0  0  0  0  0  0  0  0  0  0  0  0
  -38.1771  -54.5112   17.0530 O   0  0  0  0  0  0  0  0  0  0  0  0
  -38.6092  -56.1260   14.9629 O   0  0  0  0  0  0  0  0  0  0  0  0
  -36.1391  -56.1581   18.2798 O   0  0  0  0  0  0  0  0  0  0  0  0
  -37.8594  -55.3904   19.6034 O   0  0  0  0  0  0  0  0  0  0  0  0
  -37.2343  -54.3493   16.8920 H   0  0  0  0  0  0  0  0  0  0  0  0
  -38.3769  -55.1891   14.8669 H   0  0  0  0  0  0  0  0  0  0  0  0
  -37.6033  -54.4884   19.3551 H   0  0  0  0  0  0  0  0  0  0  0  0
  -34.3231  -57.3390   17.1610 C   0  0  0  0  0  0  0  0  0  0  0  0
  -34.0540  -58.6812   16.7997 O   0  0  0  0  0  0  0  0  0  0  0  0
  -34.4334  -59.2772   17.4643 H   0  0  0  0  0  0  0  0  0  0  0  0
  -35.4157  -56.7361   13.8206 C   0  0  0  0  0  0  0  0  0  0  0  0
  -35.8087  -57.3622   12.5004 C   0  0  0  0  0  0  0  0  0  0  0  0
  -35.4581  -56.4777   11.3532 C   0  0  0  0  0  0  0  0  0  0  0  0
  -35.9688  -55.0766   11.5195 C   0  0  0  0  0  0  0  0  0  0  0  0
  -35.5001  -54.5278   12.8594 C   0  0  0  0  0  0  0  0  0  0  0  0
  -37.2559  -57.5530   12.4872 O   0  0  0  0  0  0  0  0  0  0  0  0
  -36.0006  -57.0665   10.1237 O   0  0  0  0  0  0  0  0  0  0  0  0
  -35.4133  -54.2599   10.4939 O   0  0  0  0  0  0  0  0  0  0  0  0
  -35.9865  -55.3821   13.9326 O   0  0  0  0  0  0  0  0  0  0  0  0
  -37.6962  -56.6936   12.5789 H   0  0  0  0  0  0  0  0  0  0  0  0
  -36.9669  -57.1191   10.1894 H   0  0  0  0  0  0  0  0  0  0  0  0
  -34.4456  -54.2737   10.5582 H   0  0  0  0  0  0  0  0  0  0  0  0
  -36.0057  -53.1300   13.0762 C   0  0  0  0  0  0  0  0  0  0  0  0
  -35.0656  -52.2004   12.5277 O   0  0  0  0  0  0  0  0  0  0  0  0
  -34.2079  -52.3106   12.9672 H   0  0  0  0  0  0  0  0  0  0  0  0
  2  3  1  0  0  0
  2  9  1  0  0  0
  2 10  1  0  0  0
  3  4  1  0  0  0
  3  7  1  0  0  0
  4  5  1  0  0  0
  4  8  1  0  0  0
  5  6  1  0  0  0
  5  1  1  0  0  0
  6 14  1  0  0  0
  6  9  1  0  0  0
 14 15  1  0  0  0
  1 17  1  0  0  0
 17 18  1  0  0  0
 17 25  1  0  0  0
 18 19  1  0  0  0
 18 22  1  0  0  0
 19 20  1  0  0  0
 19 23  1  0  0  0
 20 21  1  0  0  0
 20 24  1  0  0  0
 21 29  1  0  0  0
 21 25  1  0  0  0
 29 30  1  0  0  0
  7 11  1  0  0  0
  8 12  1  0  0  0
 15 16  1  0  0  0
 22 26  1  0  0  0
 23 27  1  0  0  0
 24 28  1  0  0  0
 30 31  1  0  0  0
 10 13  1  0  0  0
M  END
> <minimizedAffinity>
-8.87165

$$$$
4PFU_MAB_A_602


 31 32  0  0  0  0  0  0  0  0999 V2000
  -36.0258  -56.3246   15.1059 O   0  0  0  0  0  0  0  0  0  0  0  0
  -38.6374  -54.8031   12.1573 C   0  0  0  0  0  0  0  0  0  0  0  0
  -38.8900  -54.3449   13.5740 C   0  0  0  0  0  0  0  0  0  0  0  0
  -37.7289  -54.6272   14.4947 C   0  0  0  0  0  0  0  0  0  0  0  0
  -37.2394  -56.0522   14.3426 C   0  0  0  0  0  0  0  0  0  0  0  0
  -36.9158  -56.2802   12.8947 C   0  0  0  0  0  0  0  0  0  0  0  0
  -40.0188  -55.0673   14.0687 O   0  0  0  0  0  0  0  0  0  0  0  0
  -38.1487  -54.3383   15.8391 O   0  0  0  0  0  0  0  0  0  0  0  0
  -38.1782  -56.2114   12.1519 O   0  0  0  0  0  0  0  0  0  0  0  0
  -39.7708  -54.7368   11.3840 O   0  0  0  0  0  0  0  0  0  0  0  0
  -39.8221  -56.0171   14.0643 H   0  0  0  0  0  0  0  0  0  0  0  0
  -38.9033  -54.9021   16.0704 H   0  0  0  0  0  0  0  0  0  0  0  0
  -40.4468  -55.3285   11.7497 H   0  0  0  0  0  0  0  0  0  0  0  0
  -36.2309  -57.6012   12.6220 C   0  0  0  0  0  0  0  0  0  0  0  0
  -34.8319  -57.4363   12.7631 O   0  0  0  0  0  0  0  0  0  0  0  0
  -34.5198  -56.7685   12.1325 H   0  0  0  0  0  0  0  0  0  0  0  0
  -36.2841  -57.1658   16.1996 C   0  0  0  0  0  0  0  0  0  0  0  0
  -35.1077  -58.0906   16.4244 C   0  0  0  0  0  0  0  0  0  0  0  0
  -35.2468  -58.8471   17.7009 C   0  0  0  0  0  0  0  0  0  0  0  0
  -35.5360  -57.9602   18.8762 C   0  0  0  0  0  0  0  0  0  0  0  0
  -36.7464  -57.0922   18.5635 C   0  0  0  0  0  0  0  0  0  0  0  0
  -33.8930  -57.2862   16.5156 O   0  0  0  0  0  0  0  0  0  0  0  0
  -34.0116  -59.6033   17.9353 O   0  0  0  0  0  0  0  0  0  0  0  0
  -35.8599  -58.7745   19.9983 O   0  0  0  0  0  0  0  0  0  0  0  0
  -36.4813  -56.2973   17.3736 O   0  0  0  0  0  0  0  0  0  0  0  0
  -33.9668  -56.6727   17.2633 H   0  0  0  0  0  0  0  0  0  0  0  0
  -33.2668  -58.9877   18.0205 H   0  0  0  0  0  0  0  0  0  0  0  0
  -36.6356  -59.3184   19.7899 H   0  0  0  0  0  0  0  0  0  0  0  0
  -37.0609  -56.1727   19.7090 C   0  0  0  0  0  0  0  0  0  0  0  0
  -37.9879  -56.8181   20.5882 O   0  0  0  0  0  0  0  0  0  0  0  0
  -38.8013  -57.0275   20.1030 H   0  0  0  0  0  0  0  0  0  0  0  0
  2  3  1  0  0  0
  2  9  1  0  0  0
  2 10  1  0  0  0
  3  4  1  0  0  0
  3  7  1  0  0  0
  4  5  1  0  0  0
  4  8  1  0  0  0
  5  6  1  0  0  0
  5  1  1  0  0  0
  6 14  1  0  0  0
  6  9  1  0  0  0
 14 15  1  0  0  0
  1 17  1  0  0  0
 17 18  1  0  0  0
 17 25  1  0  0  0
 18 19  1  0  0  0
 18 22  1  0  0  0
 19 20  1  0  0  0
 19 23  1  0  0  0
 20 21  1  0  0  0
 20 24  1  0  0  0
 21 29  1  0  0  0
 21 25  1  0  0  0
 29 30  1  0  0  0
  7 11  1  0  0  0
  8 12  1  0  0  0
 15 16  1  0  0  0
 22 26  1  0  0  0
 23 27  1  0  0  0
 24 28  1  0  0  0
 30 31  1  0  0  0
 10 13  1  0  0  0
M  END
> <minimizedAffinity>
-8.80093

$$$$
4PFU_MAB_A_602


 31 32  0  0  0  0  0  0  0  0999 V2000
  -35.9037  -55.9428   14.0716 O   0  0  0  0  0  0  0  0  0  0  0  0
  -39.6523  -56.3164   12.1642 C   0  0  0  0  0  0  0  0  0  0  0  0
  -38.5240  -57.1375   11.5865 C   0  0  0  0  0  0  0  0  0  0  0  0
  -37.3386  -57.2353   12.5143 C   0  0  0  0  0  0  0  0  0  0  0  0
  -36.9507  -55.8759   13.0573 C   0  0  0  0  0  0  0  0  0  0  0  0
  -38.1619  -55.2719   13.7060 C   0  0  0  0  0  0  0  0  0  0  0  0
  -38.0845  -56.4901   10.3913 O   0  0  0  0  0  0  0  0  0  0  0  0
  -36.2621  -57.8593   11.7939 O   0  0  0  0  0  0  0  0  0  0  0  0
  -39.1391  -55.0124   12.6441 O   0  0  0  0  0  0  0  0  0  0  0  0
  -40.6300  -56.0573   11.2349 O   0  0  0  0  0  0  0  0  0  0  0  0
  -37.7629  -55.6003   10.6050 H   0  0  0  0  0  0  0  0  0  0  0  0
  -36.0366  -57.3208   11.0192 H   0  0  0  0  0  0  0  0  0  0  0  0
  -40.2546  -55.5378   10.5068 H   0  0  0  0  0  0  0  0  0  0  0  0
  -37.8763  -53.9944   14.4644 C   0  0  0  0  0  0  0  0  0  0  0  0
  -38.0833  -54.2193   15.8467 O   0  0  0  0  0  0  0  0  0  0  0  0
  -39.0025  -54.4909   15.9960 H   0  0  0  0  0  0  0  0  0  0  0  0
  -36.2146  -56.8785   15.0707 C   0  0  0  0  0  0  0  0  0  0  0  0
  -35.1820  -57.9845   15.0768 C   0  0  0  0  0  0  0  0  0  0  0  0
  -35.3501  -58.8792   16.2569 C   0  0  0  0  0  0  0  0  0  0  0  0
  -35.4204  -58.1274   17.5536 C   0  0  0  0  0  0  0  0  0  0  0  0
  -36.5011  -57.0602   17.4566 C   0  0  0  0  0  0  0  0  0  0  0  0
  -33.8547  -57.3829   15.1619 O   0  0  0  0  0  0  0  0  0  0  0  0
  -34.2330  -59.8297   16.2882 O   0  0  0  0  0  0  0  0  0  0  0  0
  -35.7899  -59.0312   18.5898 O   0  0  0  0  0  0  0  0  0  0  0  0
  -36.1971  -56.1578   16.3560 O   0  0  0  0  0  0  0  0  0  0  0  0
  -33.7832  -56.8721   15.9834 H   0  0  0  0  0  0  0  0  0  0  0  0
  -33.3984  -59.3448   16.3844 H   0  0  0  0  0  0  0  0  0  0  0  0
  -36.6522  -59.4246   18.3833 H   0  0  0  0  0  0  0  0  0  0  0  0
  -36.5932  -56.2689   18.7301 C   0  0  0  0  0  0  0  0  0  0  0  0
  -37.7241  -55.3943   18.6586 O   0  0  0  0  0  0  0  0  0  0  0  0
  -37.6200  -54.7922   17.9052 H   0  0  0  0  0  0  0  0  0  0  0  0
  2  3  1  0  0  0
  2  9  1  0  0  0
  2 10  1  0  0  0
  3  4  1  0  0  0
  3  7  1  0  0  0
  4  5  1  0  0  0
  4  8  1  0  0  0
  5  6  1  0  0  0
  5  1  1  0  0  0
  6 14  1  0  0  0
  6  9  1  0  0  0
 14 15  1  0  0  0
  1 17  1  0  0  0
 17 18  1  0  0  0
 17 25  1  0  0  0
 18 19  1  0  0  0
 18 22  1  0  0  0
 19 20  1  0  0  0
 19 23  1  0  0  0
 20 21  1  0  0  0
 20 24  1  0  0  0
 21 29  1  0  0  0
 21 25  1  0  0  0
 29 30  1  0  0  0
  7 11  1  0  0  0
  8 12  1  0  0  0
 15 16  1  0  0  0
 22 26  1  0  0  0
 23 27  1  0  0  0
 24 28  1  0  0  0
 30 31  1  0  0  0
 10 13  1  0  0  0
M  END
> <minimizedAffinity>
-8.78180

$$$$
4PFU_MAB_A_602


 31 32  0  0  0  0  0  0  0  0999 V2000
  -36.9559  -56.8801   15.3546 O   0  0  0  0  0  0  0  0  0  0  0  0
  -36.5271  -57.2707   19.5371 C   0  0  0  0  0  0  0  0  0  0  0  0
  -37.8295  -56.6799   19.0514 C   0  0  0  0  0  0  0  0  0  0  0  0
  -38.0581  -56.9034   17.5772 C   0  0  0  0  0  0  0  0  0  0  0  0
  -36.8302  -56.5409   16.7684 C   0  0  0  0  0  0  0  0  0  0  0  0
  -35.6688  -57.3208   17.3123 C   0  0  0  0  0  0  0  0  0  0  0  0
  -37.7744  -55.2694   19.2708 O   0  0  0  0  0  0  0  0  0  0  0  0
  -39.2107  -56.1381   17.1863 O   0  0  0  0  0  0  0  0  0  0  0  0
  -35.4118  -56.8273   18.6689 O   0  0  0  0  0  0  0  0  0  0  0  0
  -36.2303  -56.8800   20.8202 O   0  0  0  0  0  0  0  0  0  0  0  0
  -37.0375  -54.8921   18.7653 H   0  0  0  0  0  0  0  0  0  0  0  0
  -39.0488  -55.1978   17.3605 H   0  0  0  0  0  0  0  0  0  0  0  0
  -36.1244  -55.9162   20.8484 H   0  0  0  0  0  0  0  0  0  0  0  0
  -34.4119  -57.2074   16.4780 C   0  0  0  0  0  0  0  0  0  0  0  0
  -34.4830  -58.1276   15.4045 O   0  0  0  0  0  0  0  0  0  0  0  0
  -34.5636  -59.0283   15.7555 H   0  0  0  0  0  0  0  0  0  0  0  0
  -37.3658  -55.7733   14.5947 C   0  0  0  0  0  0  0  0  0  0  0  0
  -36.1552  -55.0588   14.0349 C   0  0  0  0  0  0  0  0  0  0  0  0
  -36.5486  -54.0124   13.0493 C   0  0  0  0  0  0  0  0  0  0  0  0
  -37.4746  -54.5295   11.9878 C   0  0  0  0  0  0  0  0  0  0  0  0
  -38.6682  -55.2039   12.6487 C   0  0  0  0  0  0  0  0  0  0  0  0
  -35.3198  -56.0325   13.3383 O   0  0  0  0  0  0  0  0  0  0  0  0
  -35.3338  -53.4675   12.4330 O   0  0  0  0  0  0  0  0  0  0  0  0
  -37.9605  -53.4294   11.2256 O   0  0  0  0  0  0  0  0  0  0  0  0
  -38.2045  -56.2903   13.4989 O   0  0  0  0  0  0  0  0  0  0  0  0
  -35.8239  -56.4291   12.6106 H   0  0  0  0  0  0  0  0  0  0  0  0
  -34.8649  -54.1745   11.9626 H   0  0  0  0  0  0  0  0  0  0  0  0
  -38.4307  -52.8140   11.8097 H   0  0  0  0  0  0  0  0  0  0  0  0
  -39.6143  -55.7543   11.6198 C   0  0  0  0  0  0  0  0  0  0  0  0
  -40.4956  -54.7125   11.1876 O   0  0  0  0  0  0  0  0  0  0  0  0
  -40.9965  -54.3769   11.9474 H   0  0  0  0  0  0  0  0  0  0  0  0
  2  3  1  0  0  0
  2  9  1  0  0  0
  2 10  1  0  0  0
  3  4  1  0  0  0
  3  7  1  0  0  0
  4  5  1  0  0  0
  4  8  1  0  0  0
  5  6  1  0  0  0
  5  1  1  0  0  0
  6 14  1  0  0  0
  6  9  1  0  0  0
 14 15  1  0  0  0
  1 17  1  0  0  0
 17 18  1  0  0  0
 17 25  1  0  0  0
 18 19  1  0  0  0
 18 22  1  0  0  0
 19 20  1  0  0  0
 19 23  1  0  0  0
 20 21  1  0  0  0
 20 24  1  0  0  0
 21 29  1  0  0  0
 21 25  1  0  0  0
 29 30  1  0  0  0
  7 11  1  0  0  0
  8 12  1  0  0  0
 15 16  1  0  0  0
 22 26  1  0  0  0
 23 27  1  0  0  0
 24 28  1  0  0  0
 30 31  1  0  0  0
 10 13  1  0  0  0
M  END
> <minimizedAffinity>
-8.74555

$$$$
4PFU_MAB_A_602


 31 32  0  0  0  0  0  0  0  0999 V2000
  -36.2165  -56.5429   14.3536 O   0  0  0  0  0  0  0  0  0  0  0  0
  -34.5262  -55.8343   10.5496 C   0  0  0  0  0  0  0  0  0  0  0  0
  -33.5802  -56.3239   11.6202 C   0  0  0  0  0  0  0  0  0  0  0  0
  -34.2987  -56.8918   12.8189 C   0  0  0  0  0  0  0  0  0  0  0  0
  -35.4010  -55.9663   13.2895 C   0  0  0  0  0  0  0  0  0  0  0  0
  -36.3108  -55.6982   12.1262 C   0  0  0  0  0  0  0  0  0  0  0  0
  -32.8137  -55.2042   12.0668 O   0  0  0  0  0  0  0  0  0  0  0  0
  -33.3223  -57.1386   13.8450 O   0  0  0  0  0  0  0  0  0  0  0  0
  -35.5413  -54.9320   11.1410 O   0  0  0  0  0  0  0  0  0  0  0  0
  -33.8732  -55.1311    9.5666 O   0  0  0  0  0  0  0  0  0  0  0  0
  -33.4075  -54.5338   12.4393 H   0  0  0  0  0  0  0  0  0  0  0  0
  -32.8843  -56.3061   14.0815 H   0  0  0  0  0  0  0  0  0  0  0  0
  -33.4607  -54.3428    9.9528 H   0  0  0  0  0  0  0  0  0  0  0  0
  -37.5687  -54.9431   12.4952 C   0  0  0  0  0  0  0  0  0  0  0  0
  -37.2374  -53.9008   13.3941 O   0  0  0  0  0  0  0  0  0  0  0  0
  -36.8351  -54.2778   14.1922 H   0  0  0  0  0  0  0  0  0  0  0  0
  -35.4311  -56.9319   15.4501 C   0  0  0  0  0  0  0  0  0  0  0  0
  -35.9663  -56.2974   16.7151 C   0  0  0  0  0  0  0  0  0  0  0  0
  -35.2990  -56.8527   17.9266 C   0  0  0  0  0  0  0  0  0  0  0  0
  -35.3132  -58.3527   17.9644 C   0  0  0  0  0  0  0  0  0  0  0  0
  -34.7334  -58.8927   16.6650 C   0  0  0  0  0  0  0  0  0  0  0  0
  -37.3918  -56.5942   16.8187 O   0  0  0  0  0  0  0  0  0  0  0  0
  -35.9654  -56.3147   19.1178 O   0  0  0  0  0  0  0  0  0  0  0  0
  -34.4801  -58.7937   19.0316 O   0  0  0  0  0  0  0  0  0  0  0  0
  -35.5159  -58.4002   15.5410 O   0  0  0  0  0  0  0  0  0  0  0  0
  -37.5198  -57.5548   16.8620 H   0  0  0  0  0  0  0  0  0  0  0  0
  -36.8946  -56.5929   19.1218 H   0  0  0  0  0  0  0  0  0  0  0  0
  -33.5764  -58.4706   18.8910 H   0  0  0  0  0  0  0  0  0  0  0  0
  -34.7459  -60.3948   16.6522 C   0  0  0  0  0  0  0  0  0  0  0  0
  -35.6006  -60.8661   17.6991 O   0  0  0  0  0  0  0  0  0  0  0  0
  -35.2703  -60.5482   18.5539 H   0  0  0  0  0  0  0  0  0  0  0  0
  2  3  1  0  0  0
  2  9  1  0  0  0
  2 10  1  0  0  0
  3  4  1  0  0  0
  3  7  1  0  0  0
  4  5  1  0  0  0
  4  8  1  0  0  0
  5  6  1  0  0  0
  5  1  1  0  0  0
  6 14  1  0  0  0
  6  9  1  0  0  0
 14 15  1  0  0  0
  1 17  1  0  0  0
 17 18  1  0  0  0
 17 25  1  0  0  0
 18 19  1  0  0  0
 18 22  1  0  0  0
 19 20  1  0  0  0
 19 23  1  0  0  0
 20 21  1  0  0  0
 20 24  1  0  0  0
 21 29  1  0  0  0
 21 25  1  0  0  0
 29 30  1  0  0  0
  7 11  1  0  0  0
  8 12  1  0  0  0
 15 16  1  0  0  0
 22 26  1  0  0  0
 23 27  1  0  0  0
 24 28  1  0  0  0
 30 31  1  0  0  0
 10 13  1  0  0  0
M  END
> <minimizedAffinity>
-8.72401

$$$$
4PFU_MAB_A_602


 31 32  0  0  0  0  0  0  0  0999 V2000
  -35.9169  -57.1350   14.7616 O   0  0  0  0  0  0  0  0  0  0  0  0
  -37.5564  -56.3245   18.5675 C   0  0  0  0  0  0  0  0  0  0  0  0
  -38.3528  -55.8384   17.3798 C   0  0  0  0  0  0  0  0  0  0  0  0
  -37.9077  -56.4660   16.0822 C   0  0  0  0  0  0  0  0  0  0  0  0
  -36.4020  -56.4094   15.9312 C   0  0  0  0  0  0  0  0  0  0  0  0
  -35.7892  -57.0530   17.1408 C   0  0  0  0  0  0  0  0  0  0  0  0
  -38.1501  -54.4286   17.2695 O   0  0  0  0  0  0  0  0  0  0  0  0
  -38.5865  -55.7927   15.0085 O   0  0  0  0  0  0  0  0  0  0  0  0
  -36.1060  -56.2025   18.2924 O   0  0  0  0  0  0  0  0  0  0  0  0
  -37.8232  -55.5953   19.7007 O   0  0  0  0  0  0  0  0  0  0  0  0
  -37.2081  -54.2477   17.1255 H   0  0  0  0  0  0  0  0  0  0  0  0
  -38.3558  -54.8506   15.0204 H   0  0  0  0  0  0  0  0  0  0  0  0
  -37.5691  -54.6702   19.5572 H   0  0  0  0  0  0  0  0  0  0  0  0
  -34.2919  -57.2435   17.0396 C   0  0  0  0  0  0  0  0  0  0  0  0
  -34.0233  -58.4736   16.3923 O   0  0  0  0  0  0  0  0  0  0  0  0
  -34.4125  -59.1999   16.9040 H   0  0  0  0  0  0  0  0  0  0  0  0
  -35.6406  -56.2653   13.6950 C   0  0  0  0  0  0  0  0  0  0  0  0
  -34.1665  -55.9244   13.6798 C   0  0  0  0  0  0  0  0  0  0  0  0
  -33.7925  -55.1821   12.4427 C   0  0  0  0  0  0  0  0  0  0  0  0
  -34.2552  -55.8660   11.1897 C   0  0  0  0  0  0  0  0  0  0  0  0
  -35.7487  -56.1409   11.2908 C   0  0  0  0  0  0  0  0  0  0  0  0
  -33.4002  -57.1668   13.7003 O   0  0  0  0  0  0  0  0  0  0  0  0
  -32.3347  -55.0189   12.4158 O   0  0  0  0  0  0  0  0  0  0  0  0
  -34.0450  -54.9930   10.0848 O   0  0  0  0  0  0  0  0  0  0  0  0
  -36.0133  -56.9713   12.4563 O   0  0  0  0  0  0  0  0  0  0  0  0
  -33.6164  -57.6930   12.9146 H   0  0  0  0  0  0  0  0  0  0  0  0
  -31.9120  -55.8916   12.3923 H   0  0  0  0  0  0  0  0  0  0  0  0
  -34.5431  -54.1720   10.2220 H   0  0  0  0  0  0  0  0  0  0  0  0
  -36.2519  -56.8435   10.0620 C   0  0  0  0  0  0  0  0  0  0  0  0
  -35.1371  -57.2205    9.2472 O   0  0  0  0  0  0  0  0  0  0  0  0
  -34.6408  -56.4273    8.9913 H   0  0  0  0  0  0  0  0  0  0  0  0
  2  3  1  0  0  0
  2  9  1  0  0  0
  2 10  1  0  0  0
  3  4  1  0  0  0
  3  7  1  0  0  0
  4  5  1  0  0  0
  4  8  1  0  0  0
  5  6  1  0  0  0
  5  1  1  0  0  0
  6 14  1  0  0  0
  6  9  1  0  0  0
 14 15  1  0  0  0
  1 17  1  0  0  0
 17 18  1  0  0  0
 17 25  1  0  0  0
 18 19  1  0  0  0
 18 22  1  0  0  0
 19 20  1  0  0  0
 19 23  1  0  0  0
 20 21  1  0  0  0
 20 24  1  0  0  0
 21 29  1  0  0  0
 21 25  1  0  0  0
 29 30  1  0  0  0
  7 11  1  0  0  0
  8 12  1  0  0  0
 15 16  1  0  0  0
 22 26  1  0  0  0
 23 27  1  0  0  0
 24 28  1  0  0  0
 30 31  1  0  0  0
 10 13  1  0  0  0
M  END
> <minimizedAffinity>
-8.54711

$$$$
4PFU_MAB_A_602


 31 32  0  0  0  0  0  0  0  0999 V2000
  -36.9813  -57.3100   17.0777 O   0  0  0  0  0  0  0  0  0  0  0  0
  -35.3852  -57.2467   13.1690 C   0  0  0  0  0  0  0  0  0  0  0  0
  -34.5442  -57.9269   14.2230 C   0  0  0  0  0  0  0  0  0  0  0  0
  -35.3179  -58.2282   15.4825 C   0  0  0  0  0  0  0  0  0  0  0  0
  -36.1042  -57.0206   15.9479 C   0  0  0  0  0  0  0  0  0  0  0  0
  -36.9749  -56.5674   14.8124 C   0  0  0  0  0  0  0  0  0  0  0  0
  -33.4822  -57.0371   14.5713 O   0  0  0  0  0  0  0  0  0  0  0  0
  -34.3855  -58.6849   16.4770 O   0  0  0  0  0  0  0  0  0  0  0  0
  -36.0869  -56.0798   13.7523 O   0  0  0  0  0  0  0  0  0  0  0  0
  -34.6260  -56.7883   12.1200 O   0  0  0  0  0  0  0  0  0  0  0  0
  -33.8531  -56.2161   14.9309 H   0  0  0  0  0  0  0  0  0  0  0  0
  -33.7282  -57.9919   16.6464 H   0  0  0  0  0  0  0  0  0  0  0  0
  -33.9964  -56.1245   12.4423 H   0  0  0  0  0  0  0  0  0  0  0  0
  -37.9622  -55.4861   15.1928 C   0  0  0  0  0  0  0  0  0  0  0  0
  -39.1874  -56.0878   15.5686 O   0  0  0  0  0  0  0  0  0  0  0  0
  -39.5360  -56.6033   14.8245 H   0  0  0  0  0  0  0  0  0  0  0  0
  -36.6165  -56.5715   18.2144 C   0  0  0  0  0  0  0  0  0  0  0  0
  -37.8165  -56.3962   19.1191 C   0  0  0  0  0  0  0  0  0  0  0  0
  -37.4265  -55.8093   20.4324 C   0  0  0  0  0  0  0  0  0  0  0  0
  -36.2939  -56.5447   21.0867 C   0  0  0  0  0  0  0  0  0  0  0  0
  -35.1308  -56.6451   20.1103 C   0  0  0  0  0  0  0  0  0  0  0  0
  -38.4025  -57.7083   19.3761 O   0  0  0  0  0  0  0  0  0  0  0  0
  -38.5997  -55.8092   21.3134 O   0  0  0  0  0  0  0  0  0  0  0  0
  -35.8533  -55.7991   22.2167 O   0  0  0  0  0  0  0  0  0  0  0  0
  -35.5644  -57.3374   18.9059 O   0  0  0  0  0  0  0  0  0  0  0  0
  -37.7485  -58.2739   19.8158 H   0  0  0  0  0  0  0  0  0  0  0  0
  -38.8955  -56.7216   21.4582 H   0  0  0  0  0  0  0  0  0  0  0  0
  -35.5607  -54.9199   21.9299 H   0  0  0  0  0  0  0  0  0  0  0  0
  -33.9787  -57.3926   20.7193 C   0  0  0  0  0  0  0  0  0  0  0  0
  -34.4844  -58.3676   21.6371 O   0  0  0  0  0  0  0  0  0  0  0  0
  -34.9919  -57.9231   22.3340 H   0  0  0  0  0  0  0  0  0  0  0  0
  2  3  1  0  0  0
  2  9  1  0  0  0
  2 10  1  0  0  0
  3  4  1  0  0  0
  3  7  1  0  0  0
  4  5  1  0  0  0
  4  8  1  0  0  0
  5  6  1  0  0  0
  5  1  1  0  0  0
  6 14  1  0  0  0
  6  9  1  0  0  0
 14 15  1  0  0  0
  1 17  1  0  0  0
 17 18  1  0  0  0
 17 25  1  0  0  0
 18 19  1  0  0  0
 18 22  1  0  0  0
 19 20  1  0  0  0
 19 23  1  0  0  0
 20 21  1  0  0  0
 20 24  1  0  0  0
 21 29  1  0  0  0
 21 25  1  0  0  0
 29 30  1  0  0  0
  7 11  1  0  0  0
  8 12  1  0  0  0
 15 16  1  0  0  0
 22 26  1  0  0  0
 23 27  1  0  0  0
 24 28  1  0  0  0
 30 31  1  0  0  0
 10 13  1  0  0  0
M  END
> <minimizedAffinity>
-8.47532

$$$$
4PFU_MAB_A_602


 31 32  0  0  0  0  0  0  0  0999 V2000
  -36.9767  -54.5955   13.8643 O   0  0  0  0  0  0  0  0  0  0  0  0
  -40.4138  -56.4127   12.2168 C   0  0  0  0  0  0  0  0  0  0  0  0
  -39.9144  -55.1708   11.5173 C   0  0  0  0  0  0  0  0  0  0  0  0
  -38.5116  -54.7950   11.9254 C   0  0  0  0  0  0  0  0  0  0  0  0
  -38.3539  -54.8090   13.4315 C   0  0  0  0  0  0  0  0  0  0  0  0
  -38.7732  -56.1612   13.9300 C   0  0  0  0  0  0  0  0  0  0  0  0
  -40.7746  -54.0909   11.8840 O   0  0  0  0  0  0  0  0  0  0  0  0
  -38.2158  -53.5063   11.3607 O   0  0  0  0  0  0  0  0  0  0  0  0
  -40.2122  -56.2892   13.6791 O   0  0  0  0  0  0  0  0  0  0  0  0
  -41.7543  -56.6217   12.0023 O   0  0  0  0  0  0  0  0  0  0  0  0
  -40.7380  -53.9602   12.8444 H   0  0  0  0  0  0  0  0  0  0  0  0
  -38.8483  -52.8527   11.6979 H   0  0  0  0  0  0  0  0  0  0  0  0
  -42.2598  -55.8776   12.3652 H   0  0  0  0  0  0  0  0  0  0  0  0
  -38.4857  -56.3879   15.3978 C   0  0  0  0  0  0  0  0  0  0  0  0
  -38.5535  -55.1495   16.0805 O   0  0  0  0  0  0  0  0  0  0  0  0
  -37.8982  -54.5388   15.7083 H   0  0  0  0  0  0  0  0  0  0  0  0
  -36.1217  -55.5932   13.3701 C   0  0  0  0  0  0  0  0  0  0  0  0
  -35.3740  -55.0751   12.1610 C   0  0  0  0  0  0  0  0  0  0  0  0
  -34.3022  -56.0204   11.7380 C   0  0  0  0  0  0  0  0  0  0  0  0
  -33.3982  -56.4204   12.8670 C   0  0  0  0  0  0  0  0  0  0  0  0
  -34.2394  -56.9506   14.0191 C   0  0  0  0  0  0  0  0  0  0  0  0
  -34.7360  -53.8104   12.5139 O   0  0  0  0  0  0  0  0  0  0  0  0
  -33.5197  -55.3939   10.6668 O   0  0  0  0  0  0  0  0  0  0  0  0
  -32.5486  -57.4737   12.4247 O   0  0  0  0  0  0  0  0  0  0  0  0
  -35.1763  -55.9241   14.4509 O   0  0  0  0  0  0  0  0  0  0  0  0
  -34.1102  -53.9557   13.2407 H   0  0  0  0  0  0  0  0  0  0  0  0
  -33.1032  -54.5844   11.0016 H   0  0  0  0  0  0  0  0  0  0  0  0
  -33.0889  -58.2290   12.1444 H   0  0  0  0  0  0  0  0  0  0  0  0
  -33.3736  -57.3462   15.1812 C   0  0  0  0  0  0  0  0  0  0  0  0
  -34.0416  -58.3588   15.9411 O   0  0  0  0  0  0  0  0  0  0  0  0
  -34.8882  -58.0139   16.2654 H   0  0  0  0  0  0  0  0  0  0  0  0
  2  3  1  0  0  0
  2  9  1  0  0  0
  2 10  1  0  0  0
  3  4  1  0  0  0
  3  7  1  0  0  0
  4  5  1  0  0  0
  4  8  1  0  0  0
  5  6  1  0  0  0
  5  1  1  0  0  0
  6 14  1  0  0  0
  6  9  1  0  0  0
 14 15  1  0  0  0
  1 17  1  0  0  0
 17 18  1  0  0  0
 17 25  1  0  0  0
 18 19  1  0  0  0
 18 22  1  0  0  0
 19 20  1  0  0  0
 19 23  1  0  0  0
 20 21  1  0  0  0
 20 24  1  0  0  0
 21 29  1  0  0  0
 21 25  1  0  0  0
 29 30  1  0  0  0
  7 11  1  0  0  0
  8 12  1  0  0  0
 15 16  1  0  0  0
 22 26  1  0  0  0
 23 27  1  0  0  0
 24 28  1  0  0  0
 30 31  1  0  0  0
 10 13  1  0  0  0
M  END
> <minimizedAffinity>
-8.40961

$$$$
