3WZ6_IXZ_A_409


 36 39  0  0  0  0  0  0  0  0999 V2000
   40.3091    5.5488    6.6032 C   0  0  0  0  0  0  0  0  0  0  0  0
   39.1295    6.5481    6.1841 S   0  0  0  0  0  0  0  0  0  0  0  0
   40.1747    4.3798    5.8668 C   0  0  0  0  0  0  0  0  0  0  0  0
   39.0859    4.4321    4.9881 C   0  0  0  0  0  0  0  0  0  0  0  0
   38.4066    5.6327    5.0858 C   0  0  0  0  0  0  0  0  0  0  0  0
   38.6700    3.3521    4.0659 C   0  0  0  0  0  0  0  0  0  0  0  0
   38.0675    2.2064    4.5737 C   0  0  0  0  0  0  0  0  0  0  0  0
   37.6689    1.1893    3.7191 C   0  0  0  0  0  0  0  0  0  0  0  0
   37.8630    1.3149    2.3514 C   0  0  0  0  0  0  0  0  0  0  0  0
   38.4624    2.4569    1.8405 C   0  0  0  0  0  0  0  0  0  0  0  0
   38.8589    3.4777    2.6956 C   0  0  0  0  0  0  0  0  0  0  0  0
   42.9742    6.3486    6.1841 O   0  0  0  0  0  0  0  0  0  0  0  0
   42.5556    6.3324    7.3191 C   0  0  0  0  0  0  0  0  0  0  0  0
   41.2791    5.8687    7.5834 N   0  0  0  0  0  0  0  0  0  0  0  0
   41.0254    5.7520    8.5274 H   0  0  0  0  0  0  0  0  0  0  0  0
   43.4244    6.8186    8.4598 C   0  0  0  0  0  0  0  0  0  0  0  0
   43.2082    5.9143    9.6055 N   0  0  0  0  0  0  0  0  0  0  0  0
   43.6237    6.3235   10.4424 H   0  0  0  0  0  0  0  0  0  0  0  0
   43.8357    4.6039    9.3379 C   0  0  0  0  0  0  0  0  0  0  0  0
   43.3558    3.4763   10.2211 C   0  0  0  0  0  0  0  0  0  0  0  0
   42.0341    3.4338   10.6351 C   0  0  0  0  0  0  0  0  0  0  0  0
   41.6011    2.4040   11.4587 C   0  0  0  0  0  0  0  0  0  0  0  0
   42.4894    1.4251   11.8718 C   0  0  0  0  0  0  0  0  0  0  0  0
   43.8111    1.4685   11.4583 C   0  0  0  0  0  0  0  0  0  0  0  0
   44.2444    2.4939   10.6346 C   0  0  0  0  0  0  0  0  0  0  0  0
   41.0743    3.2184    5.9850 C   0  0  0  0  0  0  0  0  0  0  0  0
   41.9389    3.0271    5.1566 O   0  0  0  0  0  0  0  0  0  0  0  0
   40.9043    2.3530    7.0487 N   0  0  0  0  0  0  0  0  0  0  0  0
   40.1255    2.4925    7.6345 H   0  0  0  0  0  0  0  0  0  0  0  0
   41.8099    1.2365    7.3646 C   0  0  0  0  0  0  0  0  0  0  0  0
   41.2152    0.3602    8.4312 C   0  0  0  0  0  0  0  0  0  0  0  0
   39.9336    0.6014    8.8985 C   0  0  0  0  0  0  0  0  0  0  0  0
   39.3948   -0.2055    9.8858 C   0  0  0  0  0  0  0  0  0  0  0  0
   40.1333   -1.2556   10.4075 C   0  0  0  0  0  0  0  0  0  0  0  0
   41.4187   -1.4912    9.9424 C   0  0  0  0  0  0  0  0  0  0  0  0
   41.9607   -0.6841    8.9548 C   0  0  0  0  0  0  0  0  0  0  0  0
 33 32  2  0  0  0
 33 34  1  0  0  0
 32 31  1  0  0  0
 34 35  2  0  0  0
 31 30  1  0  0  0
 31 36  2  0  0  0
 35 36  1  0  0  0
 30 28  1  0  0  0
 28 26  1  0  0  0
  8  7  2  0  0  0
  8  9  1  0  0  0
  7  6  1  0  0  0
  9 10  2  0  0  0
  6  4  1  0  0  0
  6 11  2  0  0  0
  4  3  1  0  0  0
  4  5  2  0  0  0
 26  3  1  0  0  0
 26 27  2  0  0  0
  3  1  2  0  0  0
  5  2  1  0  0  0
  1  2  1  0  0  0
  1 14  1  0  0  0
 14 13  1  0  0  0
 10 11  1  0  0  0
 19 20  1  0  0  0
 19 17  1  0  0  0
 16 13  1  0  0  0
 16 17  1  0  0  0
 13 12  2  0  0  0
 21 20  2  0  0  0
 21 22  1  0  0  0
 20 25  1  0  0  0
 22 23  2  0  0  0
 25 24  2  0  0  0
 23 24  1  0  0  0
 17 18  1  0  0  0
 14 15  1  0  0  0
 28 29  1  0  0  0
M  END
> <minimizedAffinity>
-8.34106

$$$$
3WZ6_IXZ_A_409


 36 39  0  0  0  0  0  0  0  0999 V2000
   44.1607    4.1345   10.0503 C   0  0  0  0  0  0  0  0  0  0  0  0
   45.7110    4.5367   10.0248 S   0  0  0  0  0  0  0  0  0  0  0  0
   43.4477    5.0950    9.3462 C   0  0  0  0  0  0  0  0  0  0  0  0
   44.2801    6.0921    8.8234 C   0  0  0  0  0  0  0  0  0  0  0  0
   45.6057    5.8771    9.1537 C   0  0  0  0  0  0  0  0  0  0  0  0
   43.8345    7.2564    8.0261 C   0  0  0  0  0  0  0  0  0  0  0  0
   43.9384    8.5366    8.5588 C   0  0  0  0  0  0  0  0  0  0  0  0
   43.5286    9.6363    7.8197 C   0  0  0  0  0  0  0  0  0  0  0  0
   43.0200    9.4635    6.5408 C   0  0  0  0  0  0  0  0  0  0  0  0
   42.9159    8.1881    6.0050 C   0  0  0  0  0  0  0  0  0  0  0  0
   43.3293    7.0863    6.7436 C   0  0  0  0  0  0  0  0  0  0  0  0
   45.4079    1.6222   10.2754 O   0  0  0  0  0  0  0  0  0  0  0  0
   44.3647    1.7954   10.8631 C   0  0  0  0  0  0  0  0  0  0  0  0
   43.6731    2.9848   10.7171 N   0  0  0  0  0  0  0  0  0  0  0  0
   42.7708    3.0356   11.1076 H   0  0  0  0  0  0  0  0  0  0  0  0
   43.8067    0.7130   11.7626 C   0  0  0  0  0  0  0  0  0  0  0  0
   43.5464   -0.4749   10.9271 N   0  0  0  0  0  0  0  0  0  0  0  0
   44.3982   -0.7301   10.4274 H   0  0  0  0  0  0  0  0  0  0  0  0
   42.4765   -0.1798    9.9521 C   0  0  0  0  0  0  0  0  0  0  0  0
   41.0715   -0.3849   10.4677 C   0  0  0  0  0  0  0  0  0  0  0  0
   40.3525    0.6886   10.9681 C   0  0  0  0  0  0  0  0  0  0  0  0
   39.0674    0.4928   11.4544 C   0  0  0  0  0  0  0  0  0  0  0  0
   38.5075   -0.7738   11.4464 C   0  0  0  0  0  0  0  0  0  0  0  0
   39.2272   -1.8473   10.9467 C   0  0  0  0  0  0  0  0  0  0  0  0
   40.5086   -1.6534   10.4588 C   0  0  0  0  0  0  0  0  0  0  0  0
   41.9859    5.0703    9.1598 C   0  0  0  0  0  0  0  0  0  0  0  0
   41.2804    5.8610    9.7492 O   0  0  0  0  0  0  0  0  0  0  0  0
   41.4409    4.1253    8.3118 N   0  0  0  0  0  0  0  0  0  0  0  0
   42.0428    3.4414    7.9387 H   0  0  0  0  0  0  0  0  0  0  0  0
   40.0206    4.0728    7.9290 C   0  0  0  0  0  0  0  0  0  0  0  0
   39.5688    2.6479    7.7719 C   0  0  0  0  0  0  0  0  0  0  0  0
   38.2894    2.2754    8.1506 C   0  0  0  0  0  0  0  0  0  0  0  0
   37.8824    0.9599    8.0093 C   0  0  0  0  0  0  0  0  0  0  0  0
   38.7508    0.0139    7.4886 C   0  0  0  0  0  0  0  0  0  0  0  0
   40.0335    0.3880    7.1159 C   0  0  0  0  0  0  0  0  0  0  0  0
   40.4436    1.7042    7.2574 C   0  0  0  0  0  0  0  0  0  0  0  0
 33 32  2  0  0  0
 33 34  1  0  0  0
 32 31  1  0  0  0
 34 35  2  0  0  0
 31 30  1  0  0  0
 31 36  2  0  0  0
 35 36  1  0  0  0
 30 28  1  0  0  0
 28 26  1  0  0  0
  8  7  2  0  0  0
  8  9  1  0  0  0
  7  6  1  0  0  0
  9 10  2  0  0  0
  6  4  1  0  0  0
  6 11  2  0  0  0
  4  3  1  0  0  0
  4  5  2  0  0  0
 26  3  1  0  0  0
 26 27  2  0  0  0
  3  1  2  0  0  0
  5  2  1  0  0  0
  1  2  1  0  0  0
  1 14  1  0  0  0
 14 13  1  0  0  0
 10 11  1  0  0  0
 19 20  1  0  0  0
 19 17  1  0  0  0
 16 13  1  0  0  0
 16 17  1  0  0  0
 13 12  2  0  0  0
 21 20  2  0  0  0
 21 22  1  0  0  0
 20 25  1  0  0  0
 22 23  2  0  0  0
 25 24  2  0  0  0
 23 24  1  0  0  0
 17 18  1  0  0  0
 14 15  1  0  0  0
 28 29  1  0  0  0
M  END
> <minimizedAffinity>
-8.23502

$$$$
3WZ6_IXZ_A_409


 36 39  0  0  0  0  0  0  0  0999 V2000
   42.8822    4.0889    7.6472 C   0  0  0  0  0  0  0  0  0  0  0  0
   42.4144    3.3153    6.3249 S   0  0  0  0  0  0  0  0  0  0  0  0
   42.5087    5.4208    7.5302 C   0  0  0  0  0  0  0  0  0  0  0  0
   41.8365    5.6766    6.3290 C   0  0  0  0  0  0  0  0  0  0  0  0
   41.7263    4.5382    5.5516 C   0  0  0  0  0  0  0  0  0  0  0  0
   41.3089    6.9908    5.8996 C   0  0  0  0  0  0  0  0  0  0  0  0
   39.9349    7.1964    5.8425 C   0  0  0  0  0  0  0  0  0  0  0  0
   39.4281    8.4251    5.4461 C   0  0  0  0  0  0  0  0  0  0  0  0
   40.2917    9.4578    5.1121 C   0  0  0  0  0  0  0  0  0  0  0  0
   41.6633    9.2575    5.1690 C   0  0  0  0  0  0  0  0  0  0  0  0
   42.1717    8.0279    5.5692 C   0  0  0  0  0  0  0  0  0  0  0  0
   45.5391    4.5222    8.4663 O   0  0  0  0  0  0  0  0  0  0  0  0
   44.8583    3.7631    9.1175 C   0  0  0  0  0  0  0  0  0  0  0  0
   43.5732    3.4552    8.7077 N   0  0  0  0  0  0  0  0  0  0  0  0
   43.1022    2.7389    9.1919 H   0  0  0  0  0  0  0  0  0  0  0  0
   45.4063    3.1433   10.3855 C   0  0  0  0  0  0  0  0  0  0  0  0
   45.1890    1.6862   10.3031 N   0  0  0  0  0  0  0  0  0  0  0  0
   44.6412    1.4727    9.4696 H   0  0  0  0  0  0  0  0  0  0  0  0
   44.4617    1.2174   11.5004 C   0  0  0  0  0  0  0  0  0  0  0  0
   42.9981    0.9159   11.2785 C   0  0  0  0  0  0  0  0  0  0  0  0
   42.0394    1.8683   11.5849 C   0  0  0  0  0  0  0  0  0  0  0  0
   40.6951    1.5816   11.3933 C   0  0  0  0  0  0  0  0  0  0  0  0
   40.3120    0.3440   10.9039 C   0  0  0  0  0  0  0  0  0  0  0  0
   41.2710   -0.6083   10.5984 C   0  0  0  0  0  0  0  0  0  0  0  0
   42.6129   -0.3232   10.7866 C   0  0  0  0  0  0  0  0  0  0  0  0
   42.7782    6.4492    8.5509 C   0  0  0  0  0  0  0  0  0  0  0  0
   41.9694    6.6682    9.4274 O   0  0  0  0  0  0  0  0  0  0  0  0
   43.9609    7.1601    8.4805 N   0  0  0  0  0  0  0  0  0  0  0  0
   44.5356    7.0189    7.6938 H   0  0  0  0  0  0  0  0  0  0  0  0
   44.4190    8.1144    9.5033 C   0  0  0  0  0  0  0  0  0  0  0  0
   45.7191    8.7461    9.0909 C   0  0  0  0  0  0  0  0  0  0  0  0
   45.7836   10.1055    8.8322 C   0  0  0  0  0  0  0  0  0  0  0  0
   46.9829   10.6793    8.4463 C   0  0  0  0  0  0  0  0  0  0  0  0
   48.1202    9.8978    8.3193 C   0  0  0  0  0  0  0  0  0  0  0  0
   48.0516    8.5358    8.5729 C   0  0  0  0  0  0  0  0  0  0  0  0
   46.8520    7.9589    8.9583 C   0  0  0  0  0  0  0  0  0  0  0  0
 33 32  2  0  0  0
 33 34  1  0  0  0
 32 31  1  0  0  0
 34 35  2  0  0  0
 31 30  1  0  0  0
 31 36  2  0  0  0
 35 36  1  0  0  0
 30 28  1  0  0  0
 28 26  1  0  0  0
  8  7  2  0  0  0
  8  9  1  0  0  0
  7  6  1  0  0  0
  9 10  2  0  0  0
  6  4  1  0  0  0
  6 11  2  0  0  0
  4  3  1  0  0  0
  4  5  2  0  0  0
 26  3  1  0  0  0
 26 27  2  0  0  0
  3  1  2  0  0  0
  5  2  1  0  0  0
  1  2  1  0  0  0
  1 14  1  0  0  0
 14 13  1  0  0  0
 10 11  1  0  0  0
 19 20  1  0  0  0
 19 17  1  0  0  0
 16 13  1  0  0  0
 16 17  1  0  0  0
 13 12  2  0  0  0
 21 20  2  0  0  0
 21 22  1  0  0  0
 20 25  1  0  0  0
 22 23  2  0  0  0
 25 24  2  0  0  0
 23 24  1  0  0  0
 17 18  1  0  0  0
 14 15  1  0  0  0
 28 29  1  0  0  0
M  END
> <minimizedAffinity>
-8.21118

$$$$
3WZ6_IXZ_A_409


 36 39  0  0  0  0  0  0  0  0999 V2000
   42.2143    7.0758    8.1820 C   0  0  0  0  0  0  0  0  0  0  0  0
   41.8785    8.3815    7.3171 S   0  0  0  0  0  0  0  0  0  0  0  0
   43.5325    7.1604    8.6086 C   0  0  0  0  0  0  0  0  0  0  0  0
   44.1510    8.3411    8.1799 C   0  0  0  0  0  0  0  0  0  0  0  0
   43.2954    9.1217    7.4241 C   0  0  0  0  0  0  0  0  0  0  0  0
   45.5490    8.7341    8.4642 C   0  0  0  0  0  0  0  0  0  0  0  0
   46.5825    7.8417    8.2021 C   0  0  0  0  0  0  0  0  0  0  0  0
   47.8974    8.2000    8.4598 C   0  0  0  0  0  0  0  0  0  0  0  0
   48.1874    9.4554    8.9737 C   0  0  0  0  0  0  0  0  0  0  0  0
   47.1594   10.3494    9.2354 C   0  0  0  0  0  0  0  0  0  0  0  0
   45.8423    9.9923    8.9743 C   0  0  0  0  0  0  0  0  0  0  0  0
   41.2142    5.2168    6.3214 O   0  0  0  0  0  0  0  0  0  0  0  0
   40.8762    5.1044    7.4776 C   0  0  0  0  0  0  0  0  0  0  0  0
   41.2756    6.0417    8.4136 N   0  0  0  0  0  0  0  0  0  0  0  0
   40.8755    5.9851    9.3113 H   0  0  0  0  0  0  0  0  0  0  0  0
   40.0132    3.9381    7.9103 C   0  0  0  0  0  0  0  0  0  0  0  0
   40.5646    2.7176    7.2910 N   0  0  0  0  0  0  0  0  0  0  0  0
   40.6076    2.8416    6.2794 H   0  0  0  0  0  0  0  0  0  0  0  0
   39.7029    1.5599    7.6063 C   0  0  0  0  0  0  0  0  0  0  0  0
   40.3499    0.5010    8.4678 C   0  0  0  0  0  0  0  0  0  0  0  0
   41.6798    0.1647    8.2721 C   0  0  0  0  0  0  0  0  0  0  0  0
   42.2660   -0.8191    9.0561 C   0  0  0  0  0  0  0  0  0  0  0  0
   41.5218   -1.4685   10.0268 C   0  0  0  0  0  0  0  0  0  0  0  0
   40.1917   -1.1324   10.2216 C   0  0  0  0  0  0  0  0  0  0  0  0
   39.6058   -0.1494    9.4420 C   0  0  0  0  0  0  0  0  0  0  0  0
   44.2065    6.1347    9.4245 C   0  0  0  0  0  0  0  0  0  0  0  0
   44.5200    6.3735   10.5712 O   0  0  0  0  0  0  0  0  0  0  0  0
   44.4800    4.9066    8.8533 N   0  0  0  0  0  0  0  0  0  0  0  0
   44.3005    4.7971    7.8916 H   0  0  0  0  0  0  0  0  0  0  0  0
   45.0218    3.7511    9.5867 C   0  0  0  0  0  0  0  0  0  0  0  0
   43.9308    3.0490   10.3456 C   0  0  0  0  0  0  0  0  0  0  0  0
   42.6241    3.5025   10.2691 C   0  0  0  0  0  0  0  0  0  0  0  0
   41.6254    2.8550   10.9761 C   0  0  0  0  0  0  0  0  0  0  0  0
   41.9288    1.7530   11.7596 C   0  0  0  0  0  0  0  0  0  0  0  0
   43.2390    1.3047   11.8395 C   0  0  0  0  0  0  0  0  0  0  0  0
   44.2406    1.9518   11.1334 C   0  0  0  0  0  0  0  0  0  0  0  0
 33 32  2  0  0  0
 33 34  1  0  0  0
 32 31  1  0  0  0
 34 35  2  0  0  0
 31 30  1  0  0  0
 31 36  2  0  0  0
 35 36  1  0  0  0
 30 28  1  0  0  0
 28 26  1  0  0  0
  8  7  2  0  0  0
  8  9  1  0  0  0
  7  6  1  0  0  0
  9 10  2  0  0  0
  6  4  1  0  0  0
  6 11  2  0  0  0
  4  3  1  0  0  0
  4  5  2  0  0  0
 26  3  1  0  0  0
 26 27  2  0  0  0
  3  1  2  0  0  0
  5  2  1  0  0  0
  1  2  1  0  0  0
  1 14  1  0  0  0
 14 13  1  0  0  0
 10 11  1  0  0  0
 19 20  1  0  0  0
 19 17  1  0  0  0
 16 13  1  0  0  0
 16 17  1  0  0  0
 13 12  2  0  0  0
 21 20  2  0  0  0
 21 22  1  0  0  0
 20 25  1  0  0  0
 22 23  2  0  0  0
 25 24  2  0  0  0
 23 24  1  0  0  0
 17 18  1  0  0  0
 14 15  1  0  0  0
 28 29  1  0  0  0
M  END
> <minimizedAffinity>
-8.17957

$$$$
3WZ6_IXZ_A_409


 36 39  0  0  0  0  0  0  0  0999 V2000
   43.0219    8.2279    8.1191 C   0  0  0  0  0  0  0  0  0  0  0  0
   42.3828    9.6178    7.6443 S   0  0  0  0  0  0  0  0  0  0  0  0
   44.3033    8.4745    8.5924 C   0  0  0  0  0  0  0  0  0  0  0  0
   44.6363    9.8330    8.5302 C   0  0  0  0  0  0  0  0  0  0  0  0
   43.6077   10.5882    7.9973 C   0  0  0  0  0  0  0  0  0  0  0  0
   45.9240   10.4251    8.9558 C   0  0  0  0  0  0  0  0  0  0  0  0
   47.1057   10.0126    8.3500 C   0  0  0  0  0  0  0  0  0  0  0  0
   48.3184   10.5634    8.7368 C   0  0  0  0  0  0  0  0  0  0  0  0
   48.3562   11.5354    9.7256 C   0  0  0  0  0  0  0  0  0  0  0  0
   47.1795   11.9509   10.3316 C   0  0  0  0  0  0  0  0  0  0  0  0
   45.9639   11.4019    9.9424 C   0  0  0  0  0  0  0  0  0  0  0  0
   43.2806    6.2742    6.1106 O   0  0  0  0  0  0  0  0  0  0  0  0
   42.5615    6.0315    7.0527 C   0  0  0  0  0  0  0  0  0  0  0  0
   42.3383    6.9921    8.0232 N   0  0  0  0  0  0  0  0  0  0  0  0
   41.6498    6.8010    8.7005 H   0  0  0  0  0  0  0  0  0  0  0  0
   41.8993    4.6758    7.1779 C   0  0  0  0  0  0  0  0  0  0  0  0
   42.9484    3.6928    7.5099 N   0  0  0  0  0  0  0  0  0  0  0  0
   42.5276    2.7687    7.6063 H   0  0  0  0  0  0  0  0  0  0  0  0
   43.6049    4.0668    8.7794 C   0  0  0  0  0  0  0  0  0  0  0  0
   43.3346    3.1322    9.9350 C   0  0  0  0  0  0  0  0  0  0  0  0
   44.3495    2.3289   10.4296 C   0  0  0  0  0  0  0  0  0  0  0  0
   44.0928    1.4609   11.4817 C   0  0  0  0  0  0  0  0  0  0  0  0
   42.8235    1.3923   12.0313 C   0  0  0  0  0  0  0  0  0  0  0  0
   41.8087    2.1951   11.5358 C   0  0  0  0  0  0  0  0  0  0  0  0
   42.0635    3.0636   10.4877 C   0  0  0  0  0  0  0  0  0  0  0  0
   45.2100    7.4337    9.1088 C   0  0  0  0  0  0  0  0  0  0  0  0
   45.8695    6.7622    8.3442 O   0  0  0  0  0  0  0  0  0  0  0  0
   45.2832    7.2353   10.4743 N   0  0  0  0  0  0  0  0  0  0  0  0
   44.6535    7.7323   11.0450 H   0  0  0  0  0  0  0  0  0  0  0  0
   46.2395    6.3306   11.1325 C   0  0  0  0  0  0  0  0  0  0  0  0
   47.1500    7.1005   12.0477 C   0  0  0  0  0  0  0  0  0  0  0  0
   47.6860    6.4934   13.1717 C   0  0  0  0  0  0  0  0  0  0  0  0
   48.5183    7.2106   14.0138 C   0  0  0  0  0  0  0  0  0  0  0  0
   48.8185    8.5343   13.7350 C   0  0  0  0  0  0  0  0  0  0  0  0
   48.2757    9.1418   12.6124 C   0  0  0  0  0  0  0  0  0  0  0  0
   47.4413    8.4262   11.7684 C   0  0  0  0  0  0  0  0  0  0  0  0
 33 32  2  0  0  0
 33 34  1  0  0  0
 32 31  1  0  0  0
 34 35  2  0  0  0
 31 30  1  0  0  0
 31 36  2  0  0  0
 35 36  1  0  0  0
 30 28  1  0  0  0
 28 26  1  0  0  0
  8  7  2  0  0  0
  8  9  1  0  0  0
  7  6  1  0  0  0
  9 10  2  0  0  0
  6  4  1  0  0  0
  6 11  2  0  0  0
  4  3  1  0  0  0
  4  5  2  0  0  0
 26  3  1  0  0  0
 26 27  2  0  0  0
  3  1  2  0  0  0
  5  2  1  0  0  0
  1  2  1  0  0  0
  1 14  1  0  0  0
 14 13  1  0  0  0
 10 11  1  0  0  0
 19 20  1  0  0  0
 19 17  1  0  0  0
 16 13  1  0  0  0
 16 17  1  0  0  0
 13 12  2  0  0  0
 21 20  2  0  0  0
 21 22  1  0  0  0
 20 25  1  0  0  0
 22 23  2  0  0  0
 25 24  2  0  0  0
 23 24  1  0  0  0
 17 18  1  0  0  0
 14 15  1  0  0  0
 28 29  1  0  0  0
M  END
> <minimizedAffinity>
-8.15181

$$$$
3WZ6_IXZ_A_409


 36 39  0  0  0  0  0  0  0  0999 V2000
   41.9424    3.2207    6.0397 C   0  0  0  0  0  0  0  0  0  0  0  0
   41.3652    3.7760    4.6526 S   0  0  0  0  0  0  0  0  0  0  0  0
   42.3271    4.3035    6.8185 C   0  0  0  0  0  0  0  0  0  0  0  0
   42.0841    5.5255    6.1798 C   0  0  0  0  0  0  0  0  0  0  0  0
   41.5343    5.3460    4.9236 C   0  0  0  0  0  0  0  0  0  0  0  0
   42.3799    6.8637    6.7380 C   0  0  0  0  0  0  0  0  0  0  0  0
   41.3420    7.6554    7.2166 C   0  0  0  0  0  0  0  0  0  0  0  0
   41.6069    8.9095    7.7465 C   0  0  0  0  0  0  0  0  0  0  0  0
   42.9117    9.3762    7.8083 C   0  0  0  0  0  0  0  0  0  0  0  0
   43.9504    8.5889    7.3332 C   0  0  0  0  0  0  0  0  0  0  0  0
   43.6861    7.3312    6.8053 C   0  0  0  0  0  0  0  0  0  0  0  0
   40.0513    1.6340    7.3903 O   0  0  0  0  0  0  0  0  0  0  0  0
   41.0343    1.0907    6.9406 C   0  0  0  0  0  0  0  0  0  0  0  0
   42.0307    1.8404    6.3410 N   0  0  0  0  0  0  0  0  0  0  0  0
   42.8669    1.3774    6.1053 H   0  0  0  0  0  0  0  0  0  0  0  0
   41.1833   -0.4133    7.0304 C   0  0  0  0  0  0  0  0  0  0  0  0
   40.3698   -0.8776    8.1705 N   0  0  0  0  0  0  0  0  0  0  0  0
   39.7818   -0.1121    8.5003 H   0  0  0  0  0  0  0  0  0  0  0  0
   41.2511   -1.3260    9.2681 C   0  0  0  0  0  0  0  0  0  0  0  0
   41.7407   -0.2263   10.1808 C   0  0  0  0  0  0  0  0  0  0  0  0
   40.8477    0.7054   10.6854 C   0  0  0  0  0  0  0  0  0  0  0  0
   41.3044    1.7228   11.5116 C   0  0  0  0  0  0  0  0  0  0  0  0
   42.6503    1.8111   11.8253 C   0  0  0  0  0  0  0  0  0  0  0  0
   43.5430    0.8797   11.3197 C   0  0  0  0  0  0  0  0  0  0  0  0
   43.0889   -0.1375   10.4972 C   0  0  0  0  0  0  0  0  0  0  0  0
   42.9159    4.1880    8.1646 C   0  0  0  0  0  0  0  0  0  0  0  0
   42.2022    4.1636    9.1447 O   0  0  0  0  0  0  0  0  0  0  0  0
   44.2907    4.1188    8.2839 N   0  0  0  0  0  0  0  0  0  0  0  0
   44.8294    4.2469    7.4699 H   0  0  0  0  0  0  0  0  0  0  0  0
   45.0037    3.8665    9.5467 C   0  0  0  0  0  0  0  0  0  0  0  0
   45.5096    5.1545   10.1334 C   0  0  0  0  0  0  0  0  0  0  0  0
   44.6944    6.2740   10.1672 C   0  0  0  0  0  0  0  0  0  0  0  0
   45.1693    7.4588   10.7029 C   0  0  0  0  0  0  0  0  0  0  0  0
   46.4581    7.5282   11.2072 C   0  0  0  0  0  0  0  0  0  0  0  0
   47.2746    6.4076   11.1666 C   0  0  0  0  0  0  0  0  0  0  0  0
   46.8018    5.2207   10.6298 C   0  0  0  0  0  0  0  0  0  0  0  0
 33 32  2  0  0  0
 33 34  1  0  0  0
 32 31  1  0  0  0
 34 35  2  0  0  0
 31 30  1  0  0  0
 31 36  2  0  0  0
 35 36  1  0  0  0
 30 28  1  0  0  0
 28 26  1  0  0  0
  8  7  2  0  0  0
  8  9  1  0  0  0
  7  6  1  0  0  0
  9 10  2  0  0  0
  6  4  1  0  0  0
  6 11  2  0  0  0
  4  3  1  0  0  0
  4  5  2  0  0  0
 26  3  1  0  0  0
 26 27  2  0  0  0
  3  1  2  0  0  0
  5  2  1  0  0  0
  1  2  1  0  0  0
  1 14  1  0  0  0
 14 13  1  0  0  0
 10 11  1  0  0  0
 19 20  1  0  0  0
 19 17  1  0  0  0
 16 13  1  0  0  0
 16 17  1  0  0  0
 13 12  2  0  0  0
 21 20  2  0  0  0
 21 22  1  0  0  0
 20 25  1  0  0  0
 22 23  2  0  0  0
 25 24  2  0  0  0
 23 24  1  0  0  0
 17 18  1  0  0  0
 14 15  1  0  0  0
 28 29  1  0  0  0
M  END
> <minimizedAffinity>
-8.01692

$$$$
3WZ6_IXZ_A_409


 36 39  0  0  0  0  0  0  0  0999 V2000
   43.3812    6.8172    8.3237 C   0  0  0  0  0  0  0  0  0  0  0  0
   42.5969    8.0183    7.6110 S   0  0  0  0  0  0  0  0  0  0  0  0
   44.6007    7.2998    8.7787 C   0  0  0  0  0  0  0  0  0  0  0  0
   44.7660    8.6620    8.5001 C   0  0  0  0  0  0  0  0  0  0  0  0
   43.6763    9.1825    7.8263 C   0  0  0  0  0  0  0  0  0  0  0  0
   45.9511    9.4758    8.8510 C   0  0  0  0  0  0  0  0  0  0  0  0
   45.8154   10.5504    9.7229 C   0  0  0  0  0  0  0  0  0  0  0  0
   46.9194   11.3178   10.0632 C   0  0  0  0  0  0  0  0  0  0  0  0
   48.1669   11.0108    9.5401 C   0  0  0  0  0  0  0  0  0  0  0  0
   48.3070    9.9387    8.6709 C   0  0  0  0  0  0  0  0  0  0  0  0
   47.2021    9.1674    8.3322 C   0  0  0  0  0  0  0  0  0  0  0  0
   41.5653    5.8243   10.2301 O   0  0  0  0  0  0  0  0  0  0  0  0
   41.9075    5.0895    9.3318 C   0  0  0  0  0  0  0  0  0  0  0  0
   42.8600    5.5045    8.4182 N   0  0  0  0  0  0  0  0  0  0  0  0
   43.2024    4.8339    7.7839 H   0  0  0  0  0  0  0  0  0  0  0  0
   41.2972    3.7103    9.1998 C   0  0  0  0  0  0  0  0  0  0  0  0
   41.0912    3.1785   10.5607 N   0  0  0  0  0  0  0  0  0  0  0  0
   41.1707    3.9385   11.2363 H   0  0  0  0  0  0  0  0  0  0  0  0
   42.1090    2.1500   10.8585 C   0  0  0  0  0  0  0  0  0  0  0  0
   41.6045    0.7265   10.8231 C   0  0  0  0  0  0  0  0  0  0  0  0
   40.2429    0.4741   10.7739 C   0  0  0  0  0  0  0  0  0  0  0  0
   39.7834   -0.8353   10.7565 C   0  0  0  0  0  0  0  0  0  0  0  0
   40.6830   -1.8875   10.7956 C   0  0  0  0  0  0  0  0  0  0  0  0
   42.0445   -1.6346   10.8457 C   0  0  0  0  0  0  0  0  0  0  0  0
   42.5049   -0.3287   10.8606 C   0  0  0  0  0  0  0  0  0  0  0  0
   45.6054    6.4815    9.4808 C   0  0  0  0  0  0  0  0  0  0  0  0
   46.1317    5.5442    8.9197 O   0  0  0  0  0  0  0  0  0  0  0  0
   45.9241    6.7987   10.7873 N   0  0  0  0  0  0  0  0  0  0  0  0
   45.3962    7.5010   11.2314 H   0  0  0  0  0  0  0  0  0  0  0  0
   47.0003    6.1566   11.5595 C   0  0  0  0  0  0  0  0  0  0  0  0
   47.5696    7.1145   12.5682 C   0  0  0  0  0  0  0  0  0  0  0  0
   47.8058    6.7000   13.8688 C   0  0  0  0  0  0  0  0  0  0  0  0
   48.3240    7.5895   14.7942 C   0  0  0  0  0  0  0  0  0  0  0  0
   48.6088    8.8939   14.4232 C   0  0  0  0  0  0  0  0  0  0  0  0
   48.3657    9.3083   13.1219 C   0  0  0  0  0  0  0  0  0  0  0  0
   47.8459    8.4199   12.1940 C   0  0  0  0  0  0  0  0  0  0  0  0
 33 32  2  0  0  0
 33 34  1  0  0  0
 32 31  1  0  0  0
 34 35  2  0  0  0
 31 30  1  0  0  0
 31 36  2  0  0  0
 35 36  1  0  0  0
 30 28  1  0  0  0
 28 26  1  0  0  0
  8  7  2  0  0  0
  8  9  1  0  0  0
  7  6  1  0  0  0
  9 10  2  0  0  0
  6  4  1  0  0  0
  6 11  2  0  0  0
  4  3  1  0  0  0
  4  5  2  0  0  0
 26  3  1  0  0  0
 26 27  2  0  0  0
  3  1  2  0  0  0
  5  2  1  0  0  0
  1  2  1  0  0  0
  1 14  1  0  0  0
 14 13  1  0  0  0
 10 11  1  0  0  0
 19 20  1  0  0  0
 19 17  1  0  0  0
 16 13  1  0  0  0
 16 17  1  0  0  0
 13 12  2  0  0  0
 21 20  2  0  0  0
 21 22  1  0  0  0
 20 25  1  0  0  0
 22 23  2  0  0  0
 25 24  2  0  0  0
 23 24  1  0  0  0
 17 18  1  0  0  0
 14 15  1  0  0  0
 28 29  1  0  0  0
M  END
> <minimizedAffinity>
-7.99836

$$$$
3WZ6_IXZ_A_409


 36 39  0  0  0  0  0  0  0  0999 V2000
   42.1249    3.0969    9.4819 C   0  0  0  0  0  0  0  0  0  0  0  0
   43.0654    2.8572   10.7562 S   0  0  0  0  0  0  0  0  0  0  0  0
   41.1681    2.0918    9.4488 C   0  0  0  0  0  0  0  0  0  0  0  0
   41.2990    1.2033   10.5230 C   0  0  0  0  0  0  0  0  0  0  0  0
   42.3612    1.5424   11.3411 C   0  0  0  0  0  0  0  0  0  0  0  0
   40.4392    0.0261   10.7775 C   0  0  0  0  0  0  0  0  0  0  0  0
   39.1371    0.2088   11.2297 C   0  0  0  0  0  0  0  0  0  0  0  0
   38.3198   -0.8863   11.4674 C   0  0  0  0  0  0  0  0  0  0  0  0
   38.7967   -2.1700   11.2470 C   0  0  0  0  0  0  0  0  0  0  0  0
   40.0948   -2.3568   10.7946 C   0  0  0  0  0  0  0  0  0  0  0  0
   40.9130   -1.2601   10.5530 C   0  0  0  0  0  0  0  0  0  0  0  0
   41.4088    5.7945    9.8396 O   0  0  0  0  0  0  0  0  0  0  0  0
   42.0111    5.4930    8.8346 C   0  0  0  0  0  0  0  0  0  0  0  0
   42.3127    4.1678    8.5753 N   0  0  0  0  0  0  0  0  0  0  0  0
   42.6874    3.9527    7.6907 H   0  0  0  0  0  0  0  0  0  0  0  0
   42.4394    6.5622    7.8520 C   0  0  0  0  0  0  0  0  0  0  0  0
   43.8965    6.4351    7.6573 N   0  0  0  0  0  0  0  0  0  0  0  0
   44.1596    5.4509    7.7064 H   0  0  0  0  0  0  0  0  0  0  0  0
   44.6121    7.1865    8.7089 C   0  0  0  0  0  0  0  0  0  0  0  0
   45.5554    6.3601    9.5512 C   0  0  0  0  0  0  0  0  0  0  0  0
   45.7750    5.0274    9.2420 C   0  0  0  0  0  0  0  0  0  0  0  0
   46.6311    4.2681   10.0275 C   0  0  0  0  0  0  0  0  0  0  0  0
   47.2588    4.8389   11.1220 C   0  0  0  0  0  0  0  0  0  0  0  0
   47.0382    6.1715   11.4313 C   0  0  0  0  0  0  0  0  0  0  0  0
   46.1863    6.9313   10.6473 C   0  0  0  0  0  0  0  0  0  0  0  0
   40.1279    1.9722    8.4116 C   0  0  0  0  0  0  0  0  0  0  0  0
   39.2292    2.7839    8.3498 O   0  0  0  0  0  0  0  0  0  0  0  0
   40.1943    0.9155    7.5238 N   0  0  0  0  0  0  0  0  0  0  0  0
   40.8812    0.2276    7.6791 H   0  0  0  0  0  0  0  0  0  0  0  0
   39.3067    0.7496    6.3615 C   0  0  0  0  0  0  0  0  0  0  0  0
   38.5705   -0.5583    6.4422 C   0  0  0  0  0  0  0  0  0  0  0  0
   37.5429   -0.8369    5.5558 C   0  0  0  0  0  0  0  0  0  0  0  0
   36.8647   -2.0407    5.6404 C   0  0  0  0  0  0  0  0  0  0  0  0
   37.2116   -2.9693    6.6087 C   0  0  0  0  0  0  0  0  0  0  0  0
   38.2366   -2.6854    7.4990 C   0  0  0  0  0  0  0  0  0  0  0  0
   38.9163   -1.4806    7.4171 C   0  0  0  0  0  0  0  0  0  0  0  0
 33 32  2  0  0  0
 33 34  1  0  0  0
 32 31  1  0  0  0
 34 35  2  0  0  0
 31 30  1  0  0  0
 31 36  2  0  0  0
 35 36  1  0  0  0
 30 28  1  0  0  0
 28 26  1  0  0  0
  8  7  2  0  0  0
  8  9  1  0  0  0
  7  6  1  0  0  0
  9 10  2  0  0  0
  6  4  1  0  0  0
  6 11  2  0  0  0
  4  3  1  0  0  0
  4  5  2  0  0  0
 26  3  1  0  0  0
 26 27  2  0  0  0
  3  1  2  0  0  0
  5  2  1  0  0  0
  1  2  1  0  0  0
  1 14  1  0  0  0
 14 13  1  0  0  0
 10 11  1  0  0  0
 19 20  1  0  0  0
 19 17  1  0  0  0
 16 13  1  0  0  0
 16 17  1  0  0  0
 13 12  2  0  0  0
 21 20  2  0  0  0
 21 22  1  0  0  0
 20 25  1  0  0  0
 22 23  2  0  0  0
 25 24  2  0  0  0
 23 24  1  0  0  0
 17 18  1  0  0  0
 14 15  1  0  0  0
 28 29  1  0  0  0
M  END
> <minimizedAffinity>
-7.99676

$$$$
3WZ6_IXZ_A_409


 36 39  0  0  0  0  0  0  0  0999 V2000
   39.6615    4.6537    7.5271 C   0  0  0  0  0  0  0  0  0  0  0  0
   38.8642    3.3025    7.2040 S   0  0  0  0  0  0  0  0  0  0  0  0
   40.6658    4.3617    8.4398 C   0  0  0  0  0  0  0  0  0  0  0  0
   40.6901    3.0040    8.7809 C   0  0  0  0  0  0  0  0  0  0  0  0
   39.6949    2.2955    8.1327 C   0  0  0  0  0  0  0  0  0  0  0  0
   41.6357    2.3696    9.7261 C   0  0  0  0  0  0  0  0  0  0  0  0
   41.3995    2.4485   11.0940 C   0  0  0  0  0  0  0  0  0  0  0  0
   42.2757    1.8540   11.9898 C   0  0  0  0  0  0  0  0  0  0  0  0
   43.3889    1.1704   11.5231 C   0  0  0  0  0  0  0  0  0  0  0  0
   43.6275    1.0881   10.1590 C   0  0  0  0  0  0  0  0  0  0  0  0
   42.7484    1.6806    9.2609 C   0  0  0  0  0  0  0  0  0  0  0  0
   40.9527    5.9655    5.3988 O   0  0  0  0  0  0  0  0  0  0  0  0
   39.9497    6.4669    5.8530 C   0  0  0  0  0  0  0  0  0  0  0  0
   39.3265    5.9031    6.9521 N   0  0  0  0  0  0  0  0  0  0  0  0
   38.5921    6.4109    7.3670 H   0  0  0  0  0  0  0  0  0  0  0  0
   39.3683    7.7152    5.2237 C   0  0  0  0  0  0  0  0  0  0  0  0
   40.4470    8.7182    5.1369 N   0  0  0  0  0  0  0  0  0  0  0  0
   41.3139    8.3140    5.4913 H   0  0  0  0  0  0  0  0  0  0  0  0
   40.0956    9.9061    5.9417 C   0  0  0  0  0  0  0  0  0  0  0  0
   41.1784   10.3806    6.8821 C   0  0  0  0  0  0  0  0  0  0  0  0
   40.9813   11.5170    7.6501 C   0  0  0  0  0  0  0  0  0  0  0  0
   41.9846   11.9577    8.5018 C   0  0  0  0  0  0  0  0  0  0  0  0
   43.1829   11.2676    8.5787 C   0  0  0  0  0  0  0  0  0  0  0  0
   43.3799   10.1318    7.8099 C   0  0  0  0  0  0  0  0  0  0  0  0
   42.3790    9.6892    6.9614 C   0  0  0  0  0  0  0  0  0  0  0  0
   41.6055    5.3580    8.9842 C   0  0  0  0  0  0  0  0  0  0  0  0
   41.4234    5.8336   10.0847 O   0  0  0  0  0  0  0  0  0  0  0  0
   42.6856    5.7424    8.2131 N   0  0  0  0  0  0  0  0  0  0  0  0
   42.7326    5.4069    7.2887 H   0  0  0  0  0  0  0  0  0  0  0  0
   43.7707    6.6198    8.6812 C   0  0  0  0  0  0  0  0  0  0  0  0
   44.8500    5.8143    9.3485 C   0  0  0  0  0  0  0  0  0  0  0  0
   45.0314    4.4812    9.0183 C   0  0  0  0  0  0  0  0  0  0  0  0
   46.0230    3.7435    9.6419 C   0  0  0  0  0  0  0  0  0  0  0  0
   46.8363    4.3352   10.5951 C   0  0  0  0  0  0  0  0  0  0  0  0
   46.6486    5.6685   10.9286 C   0  0  0  0  0  0  0  0  0  0  0  0
   45.6559    6.4087   10.3064 C   0  0  0  0  0  0  0  0  0  0  0  0
 33 32  2  0  0  0
 33 34  1  0  0  0
 32 31  1  0  0  0
 34 35  2  0  0  0
 31 30  1  0  0  0
 31 36  2  0  0  0
 35 36  1  0  0  0
 30 28  1  0  0  0
 28 26  1  0  0  0
  8  7  2  0  0  0
  8  9  1  0  0  0
  7  6  1  0  0  0
  9 10  2  0  0  0
  6  4  1  0  0  0
  6 11  2  0  0  0
  4  3  1  0  0  0
  4  5  2  0  0  0
 26  3  1  0  0  0
 26 27  2  0  0  0
  3  1  2  0  0  0
  5  2  1  0  0  0
  1  2  1  0  0  0
  1 14  1  0  0  0
 14 13  1  0  0  0
 10 11  1  0  0  0
 19 20  1  0  0  0
 19 17  1  0  0  0
 16 13  1  0  0  0
 16 17  1  0  0  0
 13 12  2  0  0  0
 21 20  2  0  0  0
 21 22  1  0  0  0
 20 25  1  0  0  0
 22 23  2  0  0  0
 25 24  2  0  0  0
 23 24  1  0  0  0
 17 18  1  0  0  0
 14 15  1  0  0  0
 28 29  1  0  0  0
M  END
> <minimizedAffinity>
-7.97465

$$$$
3WZ6_IXZ_A_409


 36 39  0  0  0  0  0  0  0  0999 V2000
   43.9113    6.8799    7.8528 C   0  0  0  0  0  0  0  0  0  0  0  0
   43.6573    8.4605    7.7963 S   0  0  0  0  0  0  0  0  0  0  0  0
   44.7791    6.6133    8.9029 C   0  0  0  0  0  0  0  0  0  0  0  0
   45.1479    7.7758    9.5906 C   0  0  0  0  0  0  0  0  0  0  0  0
   44.5653    8.9027    9.0400 C   0  0  0  0  0  0  0  0  0  0  0  0
   46.0584    7.8359   10.7556 C   0  0  0  0  0  0  0  0  0  0  0  0
   45.5523    7.6439   12.0363 C   0  0  0  0  0  0  0  0  0  0  0  0
   46.3963    7.6931   13.1358 C   0  0  0  0  0  0  0  0  0  0  0  0
   47.7524    7.9267   12.9609 C   0  0  0  0  0  0  0  0  0  0  0  0
   48.2618    8.1174   11.6847 C   0  0  0  0  0  0  0  0  0  0  0  0
   47.4174    8.0650   10.5825 C   0  0  0  0  0  0  0  0  0  0  0  0
   41.7348    5.1537    8.3006 O   0  0  0  0  0  0  0  0  0  0  0  0
   42.2055    5.2006    7.1871 C   0  0  0  0  0  0  0  0  0  0  0  0
   43.3268    5.9717    6.9377 N   0  0  0  0  0  0  0  0  0  0  0  0
   43.7517    5.8817    6.0542 H   0  0  0  0  0  0  0  0  0  0  0  0
   41.5725    4.4160    6.0575 C   0  0  0  0  0  0  0  0  0  0  0  0
   41.8073    2.9831    6.3196 N   0  0  0  0  0  0  0  0  0  0  0  0
   42.1508    2.5357    5.4697 H   0  0  0  0  0  0  0  0  0  0  0  0
   40.5477    2.3353    6.7393 C   0  0  0  0  0  0  0  0  0  0  0  0
   40.6990    0.9226    7.2527 C   0  0  0  0  0  0  0  0  0  0  0  0
   39.6030    0.2517    7.7709 C   0  0  0  0  0  0  0  0  0  0  0  0
   39.7498   -1.0407    8.2551 C   0  0  0  0  0  0  0  0  0  0  0  0
   40.9902   -1.6558    8.2272 C   0  0  0  0  0  0  0  0  0  0  0  0
   42.0861   -0.9842    7.7097 C   0  0  0  0  0  0  0  0  0  0  0  0
   41.9411    0.3044    7.2239 C   0  0  0  0  0  0  0  0  0  0  0  0
   45.2547    5.2656    9.2626 C   0  0  0  0  0  0  0  0  0  0  0  0
   46.3680    4.9046    8.9454 O   0  0  0  0  0  0  0  0  0  0  0  0
   44.4050    4.4250    9.9559 N   0  0  0  0  0  0  0  0  0  0  0  0
   43.4782    4.7248   10.0988 H   0  0  0  0  0  0  0  0  0  0  0  0
   44.7928    3.1115   10.4950 C   0  0  0  0  0  0  0  0  0  0  0  0
   43.5784    2.2561   10.7249 C   0  0  0  0  0  0  0  0  0  0  0  0
   43.7130    0.8915   10.9222 C   0  0  0  0  0  0  0  0  0  0  0  0
   42.5897    0.1088   11.1267 C   0  0  0  0  0  0  0  0  0  0  0  0
   41.3302    0.6866   11.1360 C   0  0  0  0  0  0  0  0  0  0  0  0
   41.1976    2.0522   10.9320 C   0  0  0  0  0  0  0  0  0  0  0  0
   42.3206    2.8377   10.7261 C   0  0  0  0  0  0  0  0  0  0  0  0
 33 32  2  0  0  0
 33 34  1  0  0  0
 32 31  1  0  0  0
 34 35  2  0  0  0
 31 30  1  0  0  0
 31 36  2  0  0  0
 35 36  1  0  0  0
 30 28  1  0  0  0
 28 26  1  0  0  0
  8  7  2  0  0  0
  8  9  1  0  0  0
  7  6  1  0  0  0
  9 10  2  0  0  0
  6  4  1  0  0  0
  6 11  2  0  0  0
  4  3  1  0  0  0
  4  5  2  0  0  0
 26  3  1  0  0  0
 26 27  2  0  0  0
  3  1  2  0  0  0
  5  2  1  0  0  0
  1  2  1  0  0  0
  1 14  1  0  0  0
 14 13  1  0  0  0
 10 11  1  0  0  0
 19 20  1  0  0  0
 19 17  1  0  0  0
 16 13  1  0  0  0
 16 17  1  0  0  0
 13 12  2  0  0  0
 21 20  2  0  0  0
 21 22  1  0  0  0
 20 25  1  0  0  0
 22 23  2  0  0  0
 25 24  2  0  0  0
 23 24  1  0  0  0
 17 18  1  0  0  0
 14 15  1  0  0  0
 28 29  1  0  0  0
M  END
> <minimizedAffinity>
-7.94754

$$$$
