3M35_M35_A_301


 40 43  0  0  0  0  0  0  0  0999 V2000
   18.6270   70.9681   23.0282 O   0  0  0  0  0  0  0  0  0  0  0  0
   20.1799   72.1905   21.9582 N   0  0  0  0  0  0  0  0  0  0  0  0
   19.6314   70.9986   22.3318 C   0  0  0  0  0  0  0  0  0  0  0  0
   20.9896   72.1743   21.3985 H   0  0  0  0  0  0  0  0  0  0  0  0
   17.6727   73.1209   21.0210 F   0  0  0  0  0  0  0  0  0  0  0  0
   19.6613   73.4226   22.3224 C   0  0  0  0  0  0  0  0  0  0  0  0
   17.7683   75.1432   22.3015 C   0  0  0  0  0  0  0  0  0  0  0  0
   18.5388   75.9708   23.2199 C   0  0  0  0  0  0  0  0  0  0  0  0
   19.8633   75.5113   23.6446 C   0  0  0  0  0  0  0  0  0  0  0  0
   20.4418   74.2550   23.2167 C   0  0  0  0  0  0  0  0  0  0  0  0
   18.3523   73.8888   21.8701 C   0  0  0  0  0  0  0  0  0  0  0  0
   17.0929   77.4266   24.8003 C   0  0  0  0  0  0  0  0  0  0  0  0
   18.0247   77.3267   23.6667 C   0  0  0  0  0  0  0  0  0  0  0  0
   18.4357   78.5952   23.0480 C   0  0  0  0  0  0  0  0  0  0  0  0
   16.6593   78.7382   25.2812 C   0  0  0  0  0  0  0  0  0  0  0  0
   17.9958   79.9073   23.5503 C   0  0  0  0  0  0  0  0  0  0  0  0
   17.1070   79.9945   24.6949 C   0  0  0  0  0  0  0  0  0  0  0  0
   19.4166   78.6923   21.5544 S   0  0  0  0  0  0  0  0  0  0  0  0
   18.7837   77.9305   20.5205 O   0  0  0  0  0  0  0  0  0  0  0  0
   20.7609   78.3242   21.8948 O   0  0  0  0  0  0  0  0  0  0  0  0
   19.3501   80.4572   21.2119 C   0  0  0  0  0  0  0  0  0  0  0  0
   19.8788   68.5061   22.3398 N   0  0  0  0  0  0  0  0  0  0  0  0
   20.6867   67.6097   21.6931 N   0  0  0  0  0  0  0  0  0  0  0  0
   21.5373   68.2538   20.8908 C   0  0  0  0  0  0  0  0  0  0  0  0
   21.2724   69.6493   20.9938 C   0  0  0  0  0  0  0  0  0  0  0  0
   20.2088   69.7742   21.9241 C   0  0  0  0  0  0  0  0  0  0  0  0
   17.2666   67.1793   25.5683 C   0  0  0  0  0  0  0  0  0  0  0  0
   16.7514   67.2308   24.2003 C   0  0  0  0  0  0  0  0  0  0  0  0
   17.6306   67.6921   23.1180 C   0  0  0  0  0  0  0  0  0  0  0  0
   19.0225   68.1012   23.3553 C   0  0  0  0  0  0  0  0  0  0  0  0
   19.5318   68.0633   24.7229 C   0  0  0  0  0  0  0  0  0  0  0  0
   18.6543   67.6042   25.8002 C   0  0  0  0  0  0  0  0  0  0  0  0
   20.6811   67.5079   27.2472 N   0  0  0  0  0  0  0  0  0  0  0  0
   19.2102   67.5723   27.2077 C   0  0  0  0  0  0  0  0  0  0  0  0
   20.9946   67.4890   28.2176 H   0  0  0  0  0  0  0  0  0  0  0  0
   21.0700   68.3271   26.7802 H   0  0  0  0  0  0  0  0  0  0  0  0
   22.7378   66.3481   20.4166 F   0  0  0  0  0  0  0  0  0  0  0  0
   22.4266   67.7133   18.7752 F   0  0  0  0  0  0  0  0  0  0  0  0
   23.7896   68.2088   20.3456 F   0  0  0  0  0  0  0  0  0  0  0  0
   22.6631   67.6123   20.0787 C   0  0  0  0  0  0  0  0  0  0  0  0
 28 27  2  0  0  0
 27 32  1  0  0  0
 40 37  1  0  0  0
 23 22  1  0  0  0
 26 22  1  0  0  0
 22 30  1  0  0  0
 21 18  1  0  0  0
 20 18  2  0  0  0
 19 18  2  0  0  0
 18 14  1  0  0  0
 29 28  1  0  0  0
 38 40  1  0  0  0
 29 30  2  0  0  0
 39 40  1  0  0  0
 34 33  1  0  0  0
  3  1  2  0  0  0
 30 31  1  0  0  0
  5 11  1  0  0  0
 31 32  2  0  0  0
  2  6  1  0  0  0
  2  3  1  0  0  0
 32 34  1  0  0  0
 24 23  2  0  0  0
 11  6  2  0  0  0
  6 10  1  0  0  0
 26  3  1  0  0  0
 40 24  1  0  0  0
 24 25  1  0  0  0
 25 26  2  0  0  0
 11  7  1  0  0  0
  7  8  2  0  0  0
 13 12  2  0  0  0
 12 15  1  0  0  0
  8  9  1  0  0  0
  8 13  1  0  0  0
 14 13  1  0  0  0
 10  9  2  0  0  0
 14 16  2  0  0  0
 17 15  2  0  0  0
 16 17  1  0  0  0
 33 35  1  0  0  0
 33 36  1  0  0  0
  2  4  1  0  0  0
M  END
> <minimizedAffinity>
-9.68117

$$$$
3M35_M35_A_301


 40 43  0  0  0  0  0  0  0  0999 V2000
   15.4245   71.3123   21.4156 O   0  0  0  0  0  0  0  0  0  0  0  0
   17.5023   71.7815   20.6991 N   0  0  0  0  0  0  0  0  0  0  0  0
   16.4117   70.9663   20.7826 C   0  0  0  0  0  0  0  0  0  0  0  0
   18.2786   71.4674   20.1815 H   0  0  0  0  0  0  0  0  0  0  0  0
   19.1605   72.2848   22.9413 F   0  0  0  0  0  0  0  0  0  0  0  0
   17.5788   73.0266   21.3020 C   0  0  0  0  0  0  0  0  0  0  0  0
   18.6029   74.6129   23.0280 C   0  0  0  0  0  0  0  0  0  0  0  0
   17.8157   75.7010   22.4640 C   0  0  0  0  0  0  0  0  0  0  0  0
   16.9107   75.4148   21.3482 C   0  0  0  0  0  0  0  0  0  0  0  0
   16.7750   74.1015   20.7540 C   0  0  0  0  0  0  0  0  0  0  0  0
   18.4608   73.2980   22.4351 C   0  0  0  0  0  0  0  0  0  0  0  0
   17.1761   77.3653   24.3424 C   0  0  0  0  0  0  0  0  0  0  0  0
   17.8603   77.0915   23.0696 C   0  0  0  0  0  0  0  0  0  0  0  0
   18.5961   78.2147   22.4712 C   0  0  0  0  0  0  0  0  0  0  0  0
   17.2849   78.6840   24.9659 C   0  0  0  0  0  0  0  0  0  0  0  0
   18.7020   79.5336   23.1168 C   0  0  0  0  0  0  0  0  0  0  0  0
   18.0549   79.7800   24.3928 C   0  0  0  0  0  0  0  0  0  0  0  0
   19.3463   78.1498   20.8478 S   0  0  0  0  0  0  0  0  0  0  0  0
   18.3189   78.0989   19.8519 O   0  0  0  0  0  0  0  0  0  0  0  0
   20.2937   77.0723   20.8516 O   0  0  0  0  0  0  0  0  0  0  0  0
   20.2269   79.7181   20.8115 C   0  0  0  0  0  0  0  0  0  0  0  0
   16.9590   68.5306   20.5775 N   0  0  0  0  0  0  0  0  0  0  0  0
   16.7069   67.5548   19.6510 N   0  0  0  0  0  0  0  0  0  0  0  0
   16.0193   68.0620   18.6253 C   0  0  0  0  0  0  0  0  0  0  0  0
   15.7855   69.4420   18.8884 C   0  0  0  0  0  0  0  0  0  0  0  0
   16.3961   69.7065   20.1412 C   0  0  0  0  0  0  0  0  0  0  0  0
   19.5383   67.8490   24.0256 C   0  0  0  0  0  0  0  0  0  0  0  0
   20.1287   68.2810   22.7591 C   0  0  0  0  0  0  0  0  0  0  0  0
   19.2576   68.4956   21.5961 C   0  0  0  0  0  0  0  0  0  0  0  0
   17.8021   68.2986   21.6564 C   0  0  0  0  0  0  0  0  0  0  0  0
   17.2150   67.8535   22.9167 C   0  0  0  0  0  0  0  0  0  0  0  0
   18.0844   67.6394   24.0742 C   0  0  0  0  0  0  0  0  0  0  0  0
   18.4335   66.8239   26.4031 N   0  0  0  0  0  0  0  0  0  0  0  0
   17.4479   67.1812   25.3687 C   0  0  0  0  0  0  0  0  0  0  0  0
   17.9465   66.5245   27.2478 H   0  0  0  0  0  0  0  0  0  0  0  0
   19.0137   67.6357   26.6148 H   0  0  0  0  0  0  0  0  0  0  0  0
   16.4126   66.2648   17.2421 F   0  0  0  0  0  0  0  0  0  0  0  0
   14.3649   66.9293   17.3849 F   0  0  0  0  0  0  0  0  0  0  0  0
   15.8043   68.0949   16.3177 F   0  0  0  0  0  0  0  0  0  0  0  0
   15.6357   67.3153   17.3472 C   0  0  0  0  0  0  0  0  0  0  0  0
 28 27  2  0  0  0
 27 32  1  0  0  0
 40 37  1  0  0  0
 23 22  1  0  0  0
 26 22  1  0  0  0
 22 30  1  0  0  0
 21 18  1  0  0  0
 20 18  2  0  0  0
 19 18  2  0  0  0
 18 14  1  0  0  0
 29 28  1  0  0  0
 38 40  1  0  0  0
 29 30  2  0  0  0
 39 40  1  0  0  0
 34 33  1  0  0  0
  3  1  2  0  0  0
 30 31  1  0  0  0
  5 11  1  0  0  0
 31 32  2  0  0  0
  2  6  1  0  0  0
  2  3  1  0  0  0
 32 34  1  0  0  0
 24 23  2  0  0  0
 11  6  2  0  0  0
  6 10  1  0  0  0
 26  3  1  0  0  0
 40 24  1  0  0  0
 24 25  1  0  0  0
 25 26  2  0  0  0
 11  7  1  0  0  0
  7  8  2  0  0  0
 13 12  2  0  0  0
 12 15  1  0  0  0
  8  9  1  0  0  0
  8 13  1  0  0  0
 14 13  1  0  0  0
 10  9  2  0  0  0
 14 16  2  0  0  0
 17 15  2  0  0  0
 16 17  1  0  0  0
 33 35  1  0  0  0
 33 36  1  0  0  0
  2  4  1  0  0  0
M  END
> <minimizedAffinity>
-8.67744

$$$$
3M35_M35_A_301


 40 43  0  0  0  0  0  0  0  0999 V2000
   15.4180   71.3797   21.2458 O   0  0  0  0  0  0  0  0  0  0  0  0
   17.5621   71.7180   20.6635 N   0  0  0  0  0  0  0  0  0  0  0  0
   16.4310   70.9567   20.7075 C   0  0  0  0  0  0  0  0  0  0  0  0
   18.3582   71.3423   20.2227 H   0  0  0  0  0  0  0  0  0  0  0  0
   16.1187   73.9209   19.6175 F   0  0  0  0  0  0  0  0  0  0  0  0
   17.6533   72.9903   21.2044 C   0  0  0  0  0  0  0  0  0  0  0  0
   16.9144   75.4379   21.2921 C   0  0  0  0  0  0  0  0  0  0  0  0
   17.7682   75.6320   22.4562 C   0  0  0  0  0  0  0  0  0  0  0  0
   18.5621   74.5031   22.9473 C   0  0  0  0  0  0  0  0  0  0  0  0
   18.5233   73.1858   22.3475 C   0  0  0  0  0  0  0  0  0  0  0  0
   16.8819   74.1198   20.6900 C   0  0  0  0  0  0  0  0  0  0  0  0
   17.1471   77.3173   24.3221 C   0  0  0  0  0  0  0  0  0  0  0  0
   17.9060   76.9974   23.1035 C   0  0  0  0  0  0  0  0  0  0  0  0
   18.8045   78.0471   22.6017 C   0  0  0  0  0  0  0  0  0  0  0  0
   17.3396   78.6040   24.9905 C   0  0  0  0  0  0  0  0  0  0  0  0
   18.9922   79.3339   23.2919 C   0  0  0  0  0  0  0  0  0  0  0  0
   18.2669   79.6226   24.5159 C   0  0  0  0  0  0  0  0  0  0  0  0
   19.6810   77.9346   21.0456 S   0  0  0  0  0  0  0  0  0  0  0  0
   20.2203   76.6165   20.8988 O   0  0  0  0  0  0  0  0  0  0  0  0
   20.6155   79.0222   20.9956 O   0  0  0  0  0  0  0  0  0  0  0  0
   18.3484   78.2391   19.8760 C   0  0  0  0  0  0  0  0  0  0  0  0
   16.9552   68.5086   20.6307 N   0  0  0  0  0  0  0  0  0  0  0  0
   16.6924   67.4876   19.7574 N   0  0  0  0  0  0  0  0  0  0  0  0
   16.0075   67.9463   18.7073 C   0  0  0  0  0  0  0  0  0  0  0  0
   15.7870   69.3403   18.8975 C   0  0  0  0  0  0  0  0  0  0  0  0
   16.4025   69.6650   20.1336 C   0  0  0  0  0  0  0  0  0  0  0  0
   19.6719   67.8943   23.9847 C   0  0  0  0  0  0  0  0  0  0  0  0
   18.2501   67.5902   24.1447 C   0  0  0  0  0  0  0  0  0  0  0  0
   17.3361   67.8123   23.0166 C   0  0  0  0  0  0  0  0  0  0  0  0
   17.7983   68.3259   21.7191 C   0  0  0  0  0  0  0  0  0  0  0  0
   19.2149   68.6429   21.5644 C   0  0  0  0  0  0  0  0  0  0  0  0
   20.1240   68.4218   22.6896 C   0  0  0  0  0  0  0  0  0  0  0  0
   21.8554   70.2045   22.5026 N   0  0  0  0  0  0  0  0  0  0  0  0
   21.5878   68.7562   22.4996 C   0  0  0  0  0  0  0  0  0  0  0  0
   22.8539   70.3660   22.3712 H   0  0  0  0  0  0  0  0  0  0  0  0
   21.5610   70.6028   23.3943 H   0  0  0  0  0  0  0  0  0  0  0  0
   16.2961   66.0171   17.4854 F   0  0  0  0  0  0  0  0  0  0  0  0
   14.3134   66.8678   17.4722 F   0  0  0  0  0  0  0  0  0  0  0  0
   15.8994   67.8141   16.3957 F   0  0  0  0  0  0  0  0  0  0  0  0
   15.6145   67.1366   17.4710 C   0  0  0  0  0  0  0  0  0  0  0  0
 28 27  2  0  0  0
 27 32  1  0  0  0
 40 37  1  0  0  0
 23 22  1  0  0  0
 26 22  1  0  0  0
 22 30  1  0  0  0
 21 18  1  0  0  0
 20 18  2  0  0  0
 19 18  2  0  0  0
 18 14  1  0  0  0
 29 28  1  0  0  0
 38 40  1  0  0  0
 29 30  2  0  0  0
 39 40  1  0  0  0
 34 33  1  0  0  0
  3  1  2  0  0  0
 30 31  1  0  0  0
  5 11  1  0  0  0
 31 32  2  0  0  0
  2  6  1  0  0  0
  2  3  1  0  0  0
 32 34  1  0  0  0
 24 23  2  0  0  0
 11  6  2  0  0  0
  6 10  1  0  0  0
 26  3  1  0  0  0
 40 24  1  0  0  0
 24 25  1  0  0  0
 25 26  2  0  0  0
 11  7  1  0  0  0
  7  8  2  0  0  0
 13 12  2  0  0  0
 12 15  1  0  0  0
  8  9  1  0  0  0
  8 13  1  0  0  0
 14 13  1  0  0  0
 10  9  2  0  0  0
 14 16  2  0  0  0
 17 15  2  0  0  0
 16 17  1  0  0  0
 33 35  1  0  0  0
 33 36  1  0  0  0
  2  4  1  0  0  0
M  END
> <minimizedAffinity>
-7.98021

$$$$
3M35_M35_A_301


 40 43  0  0  0  0  0  0  0  0999 V2000
   16.2523   71.3463   21.4221 O   0  0  0  0  0  0  0  0  0  0  0  0
   17.2860   71.8386   19.4882 N   0  0  0  0  0  0  0  0  0  0  0  0
   16.6729   70.9660   20.3389 C   0  0  0  0  0  0  0  0  0  0  0  0
   17.6127   71.4946   18.6256 H   0  0  0  0  0  0  0  0  0  0  0  0
   15.2017   73.7455   19.2655 F   0  0  0  0  0  0  0  0  0  0  0  0
   17.4748   73.1819   19.7702 C   0  0  0  0  0  0  0  0  0  0  0  0
   16.5604   75.5542   20.0533 C   0  0  0  0  0  0  0  0  0  0  0  0
   17.8770   75.9854   20.5034 C   0  0  0  0  0  0  0  0  0  0  0  0
   18.9646   75.0052   20.5500 C   0  0  0  0  0  0  0  0  0  0  0  0
   18.7928   73.6124   20.1938 C   0  0  0  0  0  0  0  0  0  0  0  0
   16.3926   74.1608   19.6918 C   0  0  0  0  0  0  0  0  0  0  0  0
   18.2809   78.4337   19.7617 C   0  0  0  0  0  0  0  0  0  0  0  0
   18.1493   77.4401   20.8381 C   0  0  0  0  0  0  0  0  0  0  0  0
   18.2580   77.9507   22.2123 C   0  0  0  0  0  0  0  0  0  0  0  0
   18.4645   79.8481   20.0863 C   0  0  0  0  0  0  0  0  0  0  0  0
   18.4347   79.3793   22.5211 C   0  0  0  0  0  0  0  0  0  0  0  0
   18.5238   80.3558   21.4505 C   0  0  0  0  0  0  0  0  0  0  0  0
   18.3045   76.8948   23.6564 S   0  0  0  0  0  0  0  0  0  0  0  0
   19.6512   76.4684   23.8894 O   0  0  0  0  0  0  0  0  0  0  0  0
   17.3252   75.8629   23.4699 O   0  0  0  0  0  0  0  0  0  0  0  0
   17.7390   78.0300   24.9324 C   0  0  0  0  0  0  0  0  0  0  0  0
   16.9897   68.5011   20.6521 N   0  0  0  0  0  0  0  0  0  0  0  0
   16.5996   67.3791   19.9715 N   0  0  0  0  0  0  0  0  0  0  0  0
   15.9020   67.7200   18.8855 C   0  0  0  0  0  0  0  0  0  0  0  0
   15.8068   69.1405   18.8486 C   0  0  0  0  0  0  0  0  0  0  0  0
   16.5091   69.6058   19.9898 C   0  0  0  0  0  0  0  0  0  0  0  0
   19.6768   68.2916   24.0788 C   0  0  0  0  0  0  0  0  0  0  0  0
   20.1694   68.8252   22.8092 C   0  0  0  0  0  0  0  0  0  0  0  0
   19.2648   68.8806   21.6534 C   0  0  0  0  0  0  0  0  0  0  0  0
   17.8694   68.4236   21.7239 C   0  0  0  0  0  0  0  0  0  0  0  0
   17.3824   67.8777   22.9872 C   0  0  0  0  0  0  0  0  0  0  0  0
   18.2852   67.8225   24.1375 C   0  0  0  0  0  0  0  0  0  0  0  0
   18.7874   67.1140   26.4735 N   0  0  0  0  0  0  0  0  0  0  0  0
   17.7522   67.2546   25.4354 C   0  0  0  0  0  0  0  0  0  0  0  0
   18.3695   66.7284   27.3203 H   0  0  0  0  0  0  0  0  0  0  0  0
   19.1895   68.0286   26.6788 H   0  0  0  0  0  0  0  0  0  0  0  0
   16.3363   65.9048   17.5387 F   0  0  0  0  0  0  0  0  0  0  0  0
   14.3085   66.1036   18.2481 F   0  0  0  0  0  0  0  0  0  0  0  0
   15.0595   67.4265   16.7463 F   0  0  0  0  0  0  0  0  0  0  0  0
   15.3812   66.7582   17.8169 C   0  0  0  0  0  0  0  0  0  0  0  0
 28 27  2  0  0  0
 27 32  1  0  0  0
 40 37  1  0  0  0
 23 22  1  0  0  0
 26 22  1  0  0  0
 22 30  1  0  0  0
 21 18  1  0  0  0
 20 18  2  0  0  0
 19 18  2  0  0  0
 18 14  1  0  0  0
 29 28  1  0  0  0
 38 40  1  0  0  0
 29 30  2  0  0  0
 39 40  1  0  0  0
 34 33  1  0  0  0
  3  1  2  0  0  0
 30 31  1  0  0  0
  5 11  1  0  0  0
 31 32  2  0  0  0
  2  6  1  0  0  0
  2  3  1  0  0  0
 32 34  1  0  0  0
 24 23  2  0  0  0
 11  6  2  0  0  0
  6 10  1  0  0  0
 26  3  1  0  0  0
 40 24  1  0  0  0
 24 25  1  0  0  0
 25 26  2  0  0  0
 11  7  1  0  0  0
  7  8  2  0  0  0
 13 12  2  0  0  0
 12 15  1  0  0  0
  8  9  1  0  0  0
  8 13  1  0  0  0
 14 13  1  0  0  0
 10  9  2  0  0  0
 14 16  2  0  0  0
 17 15  2  0  0  0
 16 17  1  0  0  0
 33 35  1  0  0  0
 33 36  1  0  0  0
  2  4  1  0  0  0
M  END
> <minimizedAffinity>
-7.97395

$$$$
3M35_M35_A_301


 40 43  0  0  0  0  0  0  0  0999 V2000
   16.4245   69.0331   20.3532 O   0  0  0  0  0  0  0  0  0  0  0  0
   17.0446   70.9939   21.2595 N   0  0  0  0  0  0  0  0  0  0  0  0
   17.0151   69.6302   21.2418 C   0  0  0  0  0  0  0  0  0  0  0  0
   17.5291   71.4387   21.9921 H   0  0  0  0  0  0  0  0  0  0  0  0
   14.5723   72.2974   21.7277 F   0  0  0  0  0  0  0  0  0  0  0  0
   16.4309   71.7881   20.3045 C   0  0  0  0  0  0  0  0  0  0  0  0
   14.5605   73.3810   19.5913 C   0  0  0  0  0  0  0  0  0  0  0  0
   15.2331   73.5645   18.3124 C   0  0  0  0  0  0  0  0  0  0  0  0
   16.4757   72.8327   18.0553 C   0  0  0  0  0  0  0  0  0  0  0  0
   17.0903   71.9486   19.0233 C   0  0  0  0  0  0  0  0  0  0  0  0
   15.1747   72.4910   20.5563 C   0  0  0  0  0  0  0  0  0  0  0  0
   13.5747   73.8822   16.3485 C   0  0  0  0  0  0  0  0  0  0  0  0
   14.6208   74.4289   17.2259 C   0  0  0  0  0  0  0  0  0  0  0  0
   14.9864   75.8355   17.0049 C   0  0  0  0  0  0  0  0  0  0  0  0
   12.9289   74.7383   15.3539 C   0  0  0  0  0  0  0  0  0  0  0  0
   14.3201   76.6853   16.0042 C   0  0  0  0  0  0  0  0  0  0  0  0
   13.2613   76.1450   15.1707 C   0  0  0  0  0  0  0  0  0  0  0  0
   16.3499   76.6429   17.8362 S   0  0  0  0  0  0  0  0  0  0  0  0
   17.5797   76.0262   17.4399 O   0  0  0  0  0  0  0  0  0  0  0  0
   16.0568   76.6512   19.2407 O   0  0  0  0  0  0  0  0  0  0  0  0
   16.2083   78.3150   17.1876 C   0  0  0  0  0  0  0  0  0  0  0  0
   18.9543   68.4006   22.2428 N   0  0  0  0  0  0  0  0  0  0  0  0
   19.1736   67.7231   23.4120 N   0  0  0  0  0  0  0  0  0  0  0  0
   18.0682   67.7286   24.1603 C   0  0  0  0  0  0  0  0  0  0  0  0
   17.0656   68.4616   23.4634 C   0  0  0  0  0  0  0  0  0  0  0  0
   17.6647   68.8768   22.2464 C   0  0  0  0  0  0  0  0  0  0  0  0
   21.9785   68.3919   19.1025 C   0  0  0  0  0  0  0  0  0  0  0  0
   20.7514   69.1662   18.9181 C   0  0  0  0  0  0  0  0  0  0  0  0
   19.7289   69.1547   19.9725 C   0  0  0  0  0  0  0  0  0  0  0  0
   19.8939   68.3950   21.2202 C   0  0  0  0  0  0  0  0  0  0  0  0
   21.1124   67.6108   21.3976 C   0  0  0  0  0  0  0  0  0  0  0  0
   22.1297   67.6227   20.3457 C   0  0  0  0  0  0  0  0  0  0  0  0
   24.1036   66.5114   19.3065 N   0  0  0  0  0  0  0  0  0  0  0  0
   23.3843   66.8031   20.5582 C   0  0  0  0  0  0  0  0  0  0  0  0
   24.9358   65.9592   19.5133 H   0  0  0  0  0  0  0  0  0  0  0  0
   24.3784   67.3866   18.8604 H   0  0  0  0  0  0  0  0  0  0  0  0
   19.0681   66.7628   25.9947 F   0  0  0  0  0  0  0  0  0  0  0  0
   17.1662   67.7214   26.3386 F   0  0  0  0  0  0  0  0  0  0  0  0
   17.2625   65.8663   25.2807 F   0  0  0  0  0  0  0  0  0  0  0  0
   17.8815   66.9933   25.4880 C   0  0  0  0  0  0  0  0  0  0  0  0
 28 27  2  0  0  0
 27 32  1  0  0  0
 40 37  1  0  0  0
 23 22  1  0  0  0
 26 22  1  0  0  0
 22 30  1  0  0  0
 21 18  1  0  0  0
 20 18  2  0  0  0
 19 18  2  0  0  0
 18 14  1  0  0  0
 29 28  1  0  0  0
 38 40  1  0  0  0
 29 30  2  0  0  0
 39 40  1  0  0  0
 34 33  1  0  0  0
  3  1  2  0  0  0
 30 31  1  0  0  0
  5 11  1  0  0  0
 31 32  2  0  0  0
  2  6  1  0  0  0
  2  3  1  0  0  0
 32 34  1  0  0  0
 24 23  2  0  0  0
 11  6  2  0  0  0
  6 10  1  0  0  0
 26  3  1  0  0  0
 40 24  1  0  0  0
 24 25  1  0  0  0
 25 26  2  0  0  0
 11  7  1  0  0  0
  7  8  2  0  0  0
 13 12  2  0  0  0
 12 15  1  0  0  0
  8  9  1  0  0  0
  8 13  1  0  0  0
 14 13  1  0  0  0
 10  9  2  0  0  0
 14 16  2  0  0  0
 17 15  2  0  0  0
 16 17  1  0  0  0
 33 35  1  0  0  0
 33 36  1  0  0  0
  2  4  1  0  0  0
M  END
> <minimizedAffinity>
-7.90724

$$$$
3M35_M35_A_301


 40 43  0  0  0  0  0  0  0  0999 V2000
   22.3860   71.3978   22.4726 O   0  0  0  0  0  0  0  0  0  0  0  0
   20.4974   71.4011   21.2544 N   0  0  0  0  0  0  0  0  0  0  0  0
   21.6272   70.7982   21.7246 C   0  0  0  0  0  0  0  0  0  0  0  0
   19.9119   70.8865   20.6531 H   0  0  0  0  0  0  0  0  0  0  0  0
   21.9099   73.6650   20.3006 F   0  0  0  0  0  0  0  0  0  0  0  0
   20.1277   72.6971   21.5758 C   0  0  0  0  0  0  0  0  0  0  0  0
   20.4113   75.2273   21.3261 C   0  0  0  0  0  0  0  0  0  0  0  0
   19.2369   75.4205   22.1659 C   0  0  0  0  0  0  0  0  0  0  0  0
   18.5544   74.2437   22.7092 C   0  0  0  0  0  0  0  0  0  0  0  0
   18.9733   72.8857   22.4324 C   0  0  0  0  0  0  0  0  0  0  0  0
   20.8320   73.8670   21.0553 C   0  0  0  0  0  0  0  0  0  0  0  0
   18.8890   77.2759   23.9391 C   0  0  0  0  0  0  0  0  0  0  0  0
   18.7716   76.8134   22.5479 C   0  0  0  0  0  0  0  0  0  0  0  0
   18.2268   77.7804   21.5840 C   0  0  0  0  0  0  0  0  0  0  0  0
   18.5143   78.6451   24.2919 C   0  0  0  0  0  0  0  0  0  0  0  0
   17.8622   79.1577   21.9550 C   0  0  0  0  0  0  0  0  0  0  0  0
   18.0196   79.6150   23.3239 C   0  0  0  0  0  0  0  0  0  0  0  0
   17.8363   77.3687   19.8869 S   0  0  0  0  0  0  0  0  0  0  0  0
   17.0376   76.1807   19.8584 O   0  0  0  0  0  0  0  0  0  0  0  0
   19.0699   77.3332   19.1552 O   0  0  0  0  0  0  0  0  0  0  0  0
   16.8895   78.8154   19.3898 C   0  0  0  0  0  0  0  0  0  0  0  0
   21.1634   68.3479   21.4901 N   0  0  0  0  0  0  0  0  0  0  0  0
   21.8601   67.2705   21.0123 N   0  0  0  0  0  0  0  0  0  0  0  0
   23.0696   67.6533   20.5969 C   0  0  0  0  0  0  0  0  0  0  0  0
   23.1797   69.0598   20.7911 C   0  0  0  0  0  0  0  0  0  0  0  0
   21.9467   69.4701   21.3601 C   0  0  0  0  0  0  0  0  0  0  0  0
   17.3727   67.7628   23.5625 C   0  0  0  0  0  0  0  0  0  0  0  0
   17.3699   68.1374   22.1486 C   0  0  0  0  0  0  0  0  0  0  0  0
   18.6491   68.3475   21.4582 C   0  0  0  0  0  0  0  0  0  0  0  0
   19.9441   68.1881   22.1354 C   0  0  0  0  0  0  0  0  0  0  0  0
   19.9462   67.8284   23.5503 C   0  0  0  0  0  0  0  0  0  0  0  0
   18.6708   67.6202   24.2368 C   0  0  0  0  0  0  0  0  0  0  0  0
   20.0456   67.3567   26.2987 N   0  0  0  0  0  0  0  0  0  0  0  0
   18.7034   67.2448   25.7027 C   0  0  0  0  0  0  0  0  0  0  0  0
   20.0038   67.0920   27.2829 H   0  0  0  0  0  0  0  0  0  0  0  0
   20.3737   68.3192   26.2192 H   0  0  0  0  0  0  0  0  0  0  0  0
   23.8712   65.5015   20.4378 F   0  0  0  0  0  0  0  0  0  0  0  0
   24.2967   66.8042   18.7715 F   0  0  0  0  0  0  0  0  0  0  0  0
   25.3124   67.0694   20.6336 F   0  0  0  0  0  0  0  0  0  0  0  0
   24.1779   66.7282   20.0926 C   0  0  0  0  0  0  0  0  0  0  0  0
 28 27  2  0  0  0
 27 32  1  0  0  0
 40 37  1  0  0  0
 23 22  1  0  0  0
 26 22  1  0  0  0
 22 30  1  0  0  0
 21 18  1  0  0  0
 20 18  2  0  0  0
 19 18  2  0  0  0
 18 14  1  0  0  0
 29 28  1  0  0  0
 38 40  1  0  0  0
 29 30  2  0  0  0
 39 40  1  0  0  0
 34 33  1  0  0  0
  3  1  2  0  0  0
 30 31  1  0  0  0
  5 11  1  0  0  0
 31 32  2  0  0  0
  2  6  1  0  0  0
  2  3  1  0  0  0
 32 34  1  0  0  0
 24 23  2  0  0  0
 11  6  2  0  0  0
  6 10  1  0  0  0
 26  3  1  0  0  0
 40 24  1  0  0  0
 24 25  1  0  0  0
 25 26  2  0  0  0
 11  7  1  0  0  0
  7  8  2  0  0  0
 13 12  2  0  0  0
 12 15  1  0  0  0
  8  9  1  0  0  0
  8 13  1  0  0  0
 14 13  1  0  0  0
 10  9  2  0  0  0
 14 16  2  0  0  0
 17 15  2  0  0  0
 16 17  1  0  0  0
 33 35  1  0  0  0
 33 36  1  0  0  0
  2  4  1  0  0  0
M  END
> <minimizedAffinity>
-7.56746

$$$$
3M35_M35_A_301


 40 43  0  0  0  0  0  0  0  0999 V2000
   21.5874   71.5051   21.7649 O   0  0  0  0  0  0  0  0  0  0  0  0
   20.0158   71.0903   20.2128 N   0  0  0  0  0  0  0  0  0  0  0  0
   21.0463   70.7023   21.0182 C   0  0  0  0  0  0  0  0  0  0  0  0
   19.6066   70.4155   19.6243 H   0  0  0  0  0  0  0  0  0  0  0  0
   17.7017   71.8601   21.6559 F   0  0  0  0  0  0  0  0  0  0  0  0
   19.5129   72.3808   20.1767 C   0  0  0  0  0  0  0  0  0  0  0  0
   17.8491   74.1522   20.9755 C   0  0  0  0  0  0  0  0  0  0  0  0
   18.5592   75.1465   20.1824 C   0  0  0  0  0  0  0  0  0  0  0  0
   19.7139   74.7232   19.3866 C   0  0  0  0  0  0  0  0  0  0  0  0
   20.2072   73.3621   19.3664 C   0  0  0  0  0  0  0  0  0  0  0  0
   18.3414   72.7893   20.9490 C   0  0  0  0  0  0  0  0  0  0  0  0
   17.3488   77.0529   18.9142 C   0  0  0  0  0  0  0  0  0  0  0  0
   18.0679   76.5801   20.1069 C   0  0  0  0  0  0  0  0  0  0  0  0
   18.2335   77.5537   21.1959 C   0  0  0  0  0  0  0  0  0  0  0  0
   16.8063   78.4107   18.8738 C   0  0  0  0  0  0  0  0  0  0  0  0
   17.6736   78.9142   21.1417 C   0  0  0  0  0  0  0  0  0  0  0  0
   16.9315   79.3565   19.9749 C   0  0  0  0  0  0  0  0  0  0  0  0
   19.2241   77.2444   22.6537 S   0  0  0  0  0  0  0  0  0  0  0  0
   20.5124   76.7607   22.2582 O   0  0  0  0  0  0  0  0  0  0  0  0
   18.4590   76.4005   23.5259 O   0  0  0  0  0  0  0  0  0  0  0  0
   19.3249   78.8962   23.3593 C   0  0  0  0  0  0  0  0  0  0  0  0
   20.8907   68.2540   21.5239 N   0  0  0  0  0  0  0  0  0  0  0  0
   21.6894   67.1649   21.2998 N   0  0  0  0  0  0  0  0  0  0  0  0
   22.8100   67.5375   20.6772 C   0  0  0  0  0  0  0  0  0  0  0  0
   22.7485   68.9435   20.4592 C   0  0  0  0  0  0  0  0  0  0  0  0
   21.5117   69.3674   21.0094 C   0  0  0  0  0  0  0  0  0  0  0  0
   17.3394   67.8757   24.0243 C   0  0  0  0  0  0  0  0  0  0  0  0
   17.1879   68.1401   22.5938 C   0  0  0  0  0  0  0  0  0  0  0  0
   18.3873   68.2811   21.7578 C   0  0  0  0  0  0  0  0  0  0  0  0
   19.7463   68.1591   22.3049 C   0  0  0  0  0  0  0  0  0  0  0  0
   19.8973   67.9096   23.7353 C   0  0  0  0  0  0  0  0  0  0  0  0
   18.7012   67.7701   24.5669 C   0  0  0  0  0  0  0  0  0  0  0  0
   17.6197   67.4890   26.7944 N   0  0  0  0  0  0  0  0  0  0  0  0
   18.8880   67.5086   26.0459 C   0  0  0  0  0  0  0  0  0  0  0  0
   17.8095   67.3092   27.7804 H   0  0  0  0  0  0  0  0  0  0  0  0
   17.0178   66.7533   26.4244 H   0  0  0  0  0  0  0  0  0  0  0  0
   24.2303   66.7242   19.0589 F   0  0  0  0  0  0  0  0  0  0  0  0
   25.0768   66.9907   21.0254 F   0  0  0  0  0  0  0  0  0  0  0  0
   23.7010   65.3980   20.6510 F   0  0  0  0  0  0  0  0  0  0  0  0
   23.9945   66.6294   20.3447 C   0  0  0  0  0  0  0  0  0  0  0  0
 28 27  2  0  0  0
 27 32  1  0  0  0
 40 37  1  0  0  0
 23 22  1  0  0  0
 26 22  1  0  0  0
 22 30  1  0  0  0
 21 18  1  0  0  0
 20 18  2  0  0  0
 19 18  2  0  0  0
 18 14  1  0  0  0
 29 28  1  0  0  0
 38 40  1  0  0  0
 29 30  2  0  0  0
 39 40  1  0  0  0
 34 33  1  0  0  0
  3  1  2  0  0  0
 30 31  1  0  0  0
  5 11  1  0  0  0
 31 32  2  0  0  0
  2  6  1  0  0  0
  2  3  1  0  0  0
 32 34  1  0  0  0
 24 23  2  0  0  0
 11  6  2  0  0  0
  6 10  1  0  0  0
 26  3  1  0  0  0
 40 24  1  0  0  0
 24 25  1  0  0  0
 25 26  2  0  0  0
 11  7  1  0  0  0
  7  8  2  0  0  0
 13 12  2  0  0  0
 12 15  1  0  0  0
  8  9  1  0  0  0
  8 13  1  0  0  0
 14 13  1  0  0  0
 10  9  2  0  0  0
 14 16  2  0  0  0
 17 15  2  0  0  0
 16 17  1  0  0  0
 33 35  1  0  0  0
 33 36  1  0  0  0
  2  4  1  0  0  0
M  END
> <minimizedAffinity>
-7.34719

$$$$
3M35_M35_A_301


 40 43  0  0  0  0  0  0  0  0999 V2000
   21.1321   72.6737   20.0514 O   0  0  0  0  0  0  0  0  0  0  0  0
   20.7368   72.2165   22.2160 N   0  0  0  0  0  0  0  0  0  0  0  0
   21.2258   71.8899   20.9851 C   0  0  0  0  0  0  0  0  0  0  0  0
   20.8297   71.5586   22.9425 H   0  0  0  0  0  0  0  0  0  0  0  0
   18.0233   72.7193   21.5725 F   0  0  0  0  0  0  0  0  0  0  0  0
   20.1168   73.4223   22.5012 C   0  0  0  0  0  0  0  0  0  0  0  0
   18.0300   74.9008   22.5622 C   0  0  0  0  0  0  0  0  0  0  0  0
   18.8055   75.9309   23.2400 C   0  0  0  0  0  0  0  0  0  0  0  0
   20.2249   75.6868   23.5071 C   0  0  0  0  0  0  0  0  0  0  0  0
   20.8982   74.4548   23.1532 C   0  0  0  0  0  0  0  0  0  0  0  0
   18.7078   73.6708   22.2038 C   0  0  0  0  0  0  0  0  0  0  0  0
   17.3422   77.4041   24.7880 C   0  0  0  0  0  0  0  0  0  0  0  0
   18.1851   77.2706   23.5902 C   0  0  0  0  0  0  0  0  0  0  0  0
   18.4051   78.4964   22.8091 C   0  0  0  0  0  0  0  0  0  0  0  0
   16.8092   78.7118   25.1691 C   0  0  0  0  0  0  0  0  0  0  0  0
   17.8674   79.8064   23.2118 C   0  0  0  0  0  0  0  0  0  0  0  0
   17.0694   79.9328   24.4180 C   0  0  0  0  0  0  0  0  0  0  0  0
   19.2463   78.5224   21.2298 S   0  0  0  0  0  0  0  0  0  0  0  0
   20.4824   77.8082   21.3387 O   0  0  0  0  0  0  0  0  0  0  0  0
   19.3279   79.8905   20.8053 O   0  0  0  0  0  0  0  0  0  0  0  0
   18.0642   77.6463   20.1946 C   0  0  0  0  0  0  0  0  0  0  0  0
   21.3103   69.3875   20.9149 N   0  0  0  0  0  0  0  0  0  0  0  0
   22.2612   68.4582   20.5887 N   0  0  0  0  0  0  0  0  0  0  0  0
   23.3997   69.0662   20.2477 C   0  0  0  0  0  0  0  0  0  0  0  0
   23.1933   70.4726   20.3339 C   0  0  0  0  0  0  0  0  0  0  0  0
   21.8509   70.6420   20.7600 C   0  0  0  0  0  0  0  0  0  0  0  0
   17.4518   68.2941   22.6245 C   0  0  0  0  0  0  0  0  0  0  0  0
   18.6815   67.8493   23.2796 C   0  0  0  0  0  0  0  0  0  0  0  0
   19.9791   68.2078   22.6922 C   0  0  0  0  0  0  0  0  0  0  0  0
   20.0926   69.0091   21.4649 C   0  0  0  0  0  0  0  0  0  0  0  0
   18.8648   69.4406   20.8035 C   0  0  0  0  0  0  0  0  0  0  0  0
   17.5729   69.0818   21.3897 C   0  0  0  0  0  0  0  0  0  0  0  0
   15.6707   70.6913   21.3468 N   0  0  0  0  0  0  0  0  0  0  0  0
   16.3167   69.5455   20.6842 C   0  0  0  0  0  0  0  0  0  0  0  0
   14.8338   70.9568   20.8276 H   0  0  0  0  0  0  0  0  0  0  0  0
   16.3186   71.4787   21.3728 H   0  0  0  0  0  0  0  0  0  0  0  0
   25.6735   69.2730   19.9560 F   0  0  0  0  0  0  0  0  0  0  0  0
   24.9842   67.4076   20.7927 F   0  0  0  0  0  0  0  0  0  0  0  0
   24.6559   67.8489   18.7270 F   0  0  0  0  0  0  0  0  0  0  0  0
   24.7219   68.3724   19.9178 C   0  0  0  0  0  0  0  0  0  0  0  0
 28 27  2  0  0  0
 27 32  1  0  0  0
 40 37  1  0  0  0
 23 22  1  0  0  0
 26 22  1  0  0  0
 22 30  1  0  0  0
 21 18  1  0  0  0
 20 18  2  0  0  0
 19 18  2  0  0  0
 18 14  1  0  0  0
 29 28  1  0  0  0
 38 40  1  0  0  0
 29 30  2  0  0  0
 39 40  1  0  0  0
 34 33  1  0  0  0
  3  1  2  0  0  0
 30 31  1  0  0  0
  5 11  1  0  0  0
 31 32  2  0  0  0
  2  6  1  0  0  0
  2  3  1  0  0  0
 32 34  1  0  0  0
 24 23  2  0  0  0
 11  6  2  0  0  0
  6 10  1  0  0  0
 26  3  1  0  0  0
 40 24  1  0  0  0
 24 25  1  0  0  0
 25 26  2  0  0  0
 11  7  1  0  0  0
  7  8  2  0  0  0
 13 12  2  0  0  0
 12 15  1  0  0  0
  8  9  1  0  0  0
  8 13  1  0  0  0
 14 13  1  0  0  0
 10  9  2  0  0  0
 14 16  2  0  0  0
 17 15  2  0  0  0
 16 17  1  0  0  0
 33 35  1  0  0  0
 33 36  1  0  0  0
  2  4  1  0  0  0
M  END
> <minimizedAffinity>
-7.25916

$$$$
3M35_M35_A_301


 40 43  0  0  0  0  0  0  0  0999 V2000
   16.6182   72.2038   21.5438 O   0  0  0  0  0  0  0  0  0  0  0  0
   18.6342   71.9336   20.5880 N   0  0  0  0  0  0  0  0  0  0  0  0
   17.3725   71.5058   20.8815 C   0  0  0  0  0  0  0  0  0  0  0  0
   19.2126   71.3428   20.0535 H   0  0  0  0  0  0  0  0  0  0  0  0
   18.6795   74.2105   18.9016 F   0  0  0  0  0  0  0  0  0  0  0  0
   19.1472   73.1529   20.9997 C   0  0  0  0  0  0  0  0  0  0  0  0
   19.6056   75.6360   20.5894 C   0  0  0  0  0  0  0  0  0  0  0  0
   20.1150   75.7452   21.9497 C   0  0  0  0  0  0  0  0  0  0  0  0
   20.1497   74.5460   22.7903 C   0  0  0  0  0  0  0  0  0  0  0  0
   19.6765   73.2519   22.3458 C   0  0  0  0  0  0  0  0  0  0  0  0
   19.1380   74.3382   20.1449 C   0  0  0  0  0  0  0  0  0  0  0  0
   22.1372   77.2371   22.5759 C   0  0  0  0  0  0  0  0  0  0  0  0
   20.6820   77.0538   22.4677 C   0  0  0  0  0  0  0  0  0  0  0  0
   19.8507   78.2052   22.8476 C   0  0  0  0  0  0  0  0  0  0  0  0
   22.6857   78.5251   22.9999 C   0  0  0  0  0  0  0  0  0  0  0  0
   20.4199   79.4973   23.2646 C   0  0  0  0  0  0  0  0  0  0  0  0
   21.8589   79.6785   23.3297 C   0  0  0  0  0  0  0  0  0  0  0  0
   18.0659   78.1394   22.9595 S   0  0  0  0  0  0  0  0  0  0  0  0
   17.6041   79.1974   23.8064 O   0  0  0  0  0  0  0  0  0  0  0  0
   17.7050   76.8044   23.3415 O   0  0  0  0  0  0  0  0  0  0  0  0
   17.6021   78.4146   21.2432 C   0  0  0  0  0  0  0  0  0  0  0  0
   17.1112   69.0176   21.0035 N   0  0  0  0  0  0  0  0  0  0  0  0
   16.4868   68.0695   20.2383 N   0  0  0  0  0  0  0  0  0  0  0  0
   15.9051   68.6421   19.1819 C   0  0  0  0  0  0  0  0  0  0  0  0
   16.1382   70.0451   19.2548 C   0  0  0  0  0  0  0  0  0  0  0  0
   16.9080   70.2497   20.4285 C   0  0  0  0  0  0  0  0  0  0  0  0
   19.6085   67.9203   24.4045 C   0  0  0  0  0  0  0  0  0  0  0  0
   20.1951   68.6664   23.2915 C   0  0  0  0  0  0  0  0  0  0  0  0
   19.3536   69.0214   22.1413 C   0  0  0  0  0  0  0  0  0  0  0  0
   17.9306   68.6599   22.0661 C   0  0  0  0  0  0  0  0  0  0  0  0
   17.3491   67.9028   23.1706 C   0  0  0  0  0  0  0  0  0  0  0  0
   18.1892   67.5492   24.3155 C   0  0  0  0  0  0  0  0  0  0  0  0
   17.3219   67.5812   26.6516 N   0  0  0  0  0  0  0  0  0  0  0  0
   17.5588   66.7669   25.4475 C   0  0  0  0  0  0  0  0  0  0  0  0
   16.8977   67.0017   27.3760 H   0  0  0  0  0  0  0  0  0  0  0  0
   16.6948   68.3524   26.4226 H   0  0  0  0  0  0  0  0  0  0  0  0
   14.0026   67.5665   18.4597 F   0  0  0  0  0  0  0  0  0  0  0  0
   15.0901   68.6859   16.9700 F   0  0  0  0  0  0  0  0  0  0  0  0
   15.8745   66.8440   17.7195 F   0  0  0  0  0  0  0  0  0  0  0  0
   15.1971   67.9086   18.0422 C   0  0  0  0  0  0  0  0  0  0  0  0
 28 27  2  0  0  0
 27 32  1  0  0  0
 40 37  1  0  0  0
 23 22  1  0  0  0
 26 22  1  0  0  0
 22 30  1  0  0  0
 21 18  1  0  0  0
 20 18  2  0  0  0
 19 18  2  0  0  0
 18 14  1  0  0  0
 29 28  1  0  0  0
 38 40  1  0  0  0
 29 30  2  0  0  0
 39 40  1  0  0  0
 34 33  1  0  0  0
  3  1  2  0  0  0
 30 31  1  0  0  0
  5 11  1  0  0  0
 31 32  2  0  0  0
  2  6  1  0  0  0
  2  3  1  0  0  0
 32 34  1  0  0  0
 24 23  2  0  0  0
 11  6  2  0  0  0
  6 10  1  0  0  0
 26  3  1  0  0  0
 40 24  1  0  0  0
 24 25  1  0  0  0
 25 26  2  0  0  0
 11  7  1  0  0  0
  7  8  2  0  0  0
 13 12  2  0  0  0
 12 15  1  0  0  0
  8  9  1  0  0  0
  8 13  1  0  0  0
 14 13  1  0  0  0
 10  9  2  0  0  0
 14 16  2  0  0  0
 17 15  2  0  0  0
 16 17  1  0  0  0
 33 35  1  0  0  0
 33 36  1  0  0  0
  2  4  1  0  0  0
M  END
> <minimizedAffinity>
-7.17935

$$$$
3M35_M35_A_301


 40 43  0  0  0  0  0  0  0  0999 V2000
   19.9646   70.9875   20.7616 O   0  0  0  0  0  0  0  0  0  0  0  0
   18.7054   69.7108   19.4069 N   0  0  0  0  0  0  0  0  0  0  0  0
   19.7323   69.8845   20.2880 C   0  0  0  0  0  0  0  0  0  0  0  0
   18.5505   68.8080   19.0460 H   0  0  0  0  0  0  0  0  0  0  0  0
   19.1423   71.1518   17.0064 F   0  0  0  0  0  0  0  0  0  0  0  0
   17.8682   70.7336   18.9916 C   0  0  0  0  0  0  0  0  0  0  0  0
   17.1612   72.4752   17.2563 C   0  0  0  0  0  0  0  0  0  0  0  0
   16.0036   72.7955   18.0803 C   0  0  0  0  0  0  0  0  0  0  0  0
   15.8244   72.0917   19.3525 C   0  0  0  0  0  0  0  0  0  0  0  0
   16.7309   71.0670   19.8265 C   0  0  0  0  0  0  0  0  0  0  0  0
   18.0703   71.4533   17.7359 C   0  0  0  0  0  0  0  0  0  0  0  0
   13.7475   73.5617   17.0650 C   0  0  0  0  0  0  0  0  0  0  0  0
   15.0411   73.8977   17.6788 C   0  0  0  0  0  0  0  0  0  0  0  0
   15.3043   75.3267   17.9019 C   0  0  0  0  0  0  0  0  0  0  0  0
   12.7870   74.6191   16.7507 C   0  0  0  0  0  0  0  0  0  0  0  0
   14.3225   76.3775   17.5868 C   0  0  0  0  0  0  0  0  0  0  0  0
   13.0330   76.0300   17.0176 C   0  0  0  0  0  0  0  0  0  0  0  0
   16.8776   75.9635   18.4689 S   0  0  0  0  0  0  0  0  0  0  0  0
   17.8765   75.7158   17.4735 O   0  0  0  0  0  0  0  0  0  0  0  0
   17.1199   75.4190   19.7741 O   0  0  0  0  0  0  0  0  0  0  0  0
   16.5079   77.7181   18.6140 C   0  0  0  0  0  0  0  0  0  0  0  0
   20.3206   67.8831   21.6745 N   0  0  0  0  0  0  0  0  0  0  0  0
   21.3656   66.9992   21.7070 N   0  0  0  0  0  0  0  0  0  0  0  0
   22.2683   67.3209   20.7776 C   0  0  0  0  0  0  0  0  0  0  0  0
   21.7938   68.4668   20.0778 C   0  0  0  0  0  0  0  0  0  0  0  0
   20.5497   68.7974   20.6737 C   0  0  0  0  0  0  0  0  0  0  0  0
   17.2743   67.7608   24.7909 C   0  0  0  0  0  0  0  0  0  0  0  0
   16.8666   67.8209   23.3875 C   0  0  0  0  0  0  0  0  0  0  0  0
   17.8962   67.8764   22.3416 C   0  0  0  0  0  0  0  0  0  0  0  0
   19.3333   67.8669   22.6510 C   0  0  0  0  0  0  0  0  0  0  0  0
   19.7397   67.8215   24.0524 C   0  0  0  0  0  0  0  0  0  0  0  0
   18.7126   67.7670   25.0933 C   0  0  0  0  0  0  0  0  0  0  0  0
   20.5320   67.1983   26.6986 N   0  0  0  0  0  0  0  0  0  0  0  0
   19.1631   67.7173   26.5374 C   0  0  0  0  0  0  0  0  0  0  0  0
   20.7776   67.1888   27.6886 H   0  0  0  0  0  0  0  0  0  0  0  0
   21.1844   67.7968   26.1922 H   0  0  0  0  0  0  0  0  0  0  0  0
   23.9455   66.7620   19.3036 F   0  0  0  0  0  0  0  0  0  0  0  0
   24.5575   67.1935   21.3270 F   0  0  0  0  0  0  0  0  0  0  0  0
   23.5255   65.3762   20.8775 F   0  0  0  0  0  0  0  0  0  0  0  0
   23.6200   66.6376   20.5672 C   0  0  0  0  0  0  0  0  0  0  0  0
 28 27  2  0  0  0
 27 32  1  0  0  0
 40 37  1  0  0  0
 23 22  1  0  0  0
 26 22  1  0  0  0
 22 30  1  0  0  0
 21 18  1  0  0  0
 20 18  2  0  0  0
 19 18  2  0  0  0
 18 14  1  0  0  0
 29 28  1  0  0  0
 38 40  1  0  0  0
 29 30  2  0  0  0
 39 40  1  0  0  0
 34 33  1  0  0  0
  3  1  2  0  0  0
 30 31  1  0  0  0
  5 11  1  0  0  0
 31 32  2  0  0  0
  2  6  1  0  0  0
  2  3  1  0  0  0
 32 34  1  0  0  0
 24 23  2  0  0  0
 11  6  2  0  0  0
  6 10  1  0  0  0
 26  3  1  0  0  0
 40 24  1  0  0  0
 24 25  1  0  0  0
 25 26  2  0  0  0
 11  7  1  0  0  0
  7  8  2  0  0  0
 13 12  2  0  0  0
 12 15  1  0  0  0
  8  9  1  0  0  0
  8 13  1  0  0  0
 14 13  1  0  0  0
 10  9  2  0  0  0
 14 16  2  0  0  0
 17 15  2  0  0  0
 16 17  1  0  0  0
 33 35  1  0  0  0
 33 36  1  0  0  0
  2  4  1  0  0  0
M  END
> <minimizedAffinity>
-7.16913

$$$$
