5TB6_77X_A_1201


 20 22  0  0  0  0  0  0  0  0999 V2000
   -4.4321   12.7695   23.6940 C   0  0  0  0  0  0  0  0  0  0  0  0
   -5.5433   12.3060   24.0109 O   0  0  0  0  0  0  0  0  0  0  0  0
   -3.2924   12.2648   24.2028 N   0  0  0  0  0  0  0  0  0  0  0  0
   -3.3224   11.0793   25.1321 C   0  0  0  0  0  0  0  0  0  0  0  0
   -2.7866   11.5014   26.5008 C   0  0  0  0  0  0  0  0  0  0  0  0
   -1.9863   12.9090   23.8764 C   0  0  0  0  0  0  0  0  0  0  0  0
   -1.2252   13.0935   25.1823 C   0  0  0  0  0  0  0  0  0  0  0  0
   -1.6109   12.4536   26.3519 C   0  0  0  0  0  0  0  0  0  0  0  0
   -0.7386   12.8728   27.2800 N   0  0  0  0  0  0  0  0  0  0  0  0
    0.1161   13.6371   26.7988 N   0  0  0  0  0  0  0  0  0  0  0  0
   -0.1077   13.8741   25.5158 C   0  0  0  0  0  0  0  0  0  0  0  0
   -0.7709   12.6077   28.2276 H   0  0  0  0  0  0  0  0  0  0  0  0
    0.6803   14.7081   24.6924 C   0  0  0  0  0  0  0  0  0  0  0  0
    1.6275   15.5504   25.2743 C   0  0  0  0  0  0  0  0  0  0  0  0
    2.4023   16.3433   24.4452 C   0  0  0  0  0  0  0  0  0  0  0  0
    2.2751   16.3127   23.0620 C   0  0  0  0  0  0  0  0  0  0  0  0
    1.3470   15.4794   22.4629 C   0  0  0  0  0  0  0  0  0  0  0  0
    0.5720   14.6883   23.3037 C   0  0  0  0  0  0  0  0  0  0  0  0
   -4.6362   15.3171   23.4106 C   0  0  0  0  0  0  0  0  0  0  0  0
   -4.3024   13.9920   22.7636 C   0  0  0  0  0  0  0  0  0  0  0  0
  9 10  1  0  0  0
  9  8  1  0  0  0
 10 11  2  0  0  0
  8  5  1  0  0  0
  8  7  2  0  0  0
 18 17  2  0  0  0
 18 13  1  0  0  0
  5  4  1  0  0  0
 11 13  1  0  0  0
 11  7  1  0  0  0
 17 16  1  0  0  0
 13 14  2  0  0  0
  7  6  1  0  0  0
  4  3  1  0  0  0
 16 15  2  0  0  0
  2  1  2  0  0  0
 14 15  1  0  0  0
  3  6  1  0  0  0
  3  1  1  0  0  0
  1 20  1  0  0  0
 20 19  1  0  0  0
  9 12  1  0  0  0
M  END
> <minimizedAffinity>
-7.43825

$$$$
5TB6_77X_A_1201


 20 22  0  0  0  0  0  0  0  0999 V2000
    0.9480   14.7474   24.7487 C   0  0  0  0  0  0  0  0  0  0  0  0
    2.0223   15.0458   25.3027 O   0  0  0  0  0  0  0  0  0  0  0  0
   -0.1657   14.5064   25.4658 N   0  0  0  0  0  0  0  0  0  0  0  0
   -0.1617   14.6476   26.9657 C   0  0  0  0  0  0  0  0  0  0  0  0
   -0.4416   13.2838   27.5984 C   0  0  0  0  0  0  0  0  0  0  0  0
   -1.4090   14.0558   24.7740 C   0  0  0  0  0  0  0  0  0  0  0  0
   -1.9500   12.8539   25.5365 C   0  0  0  0  0  0  0  0  0  0  0  0
   -1.4920   12.5239   26.8044 C   0  0  0  0  0  0  0  0  0  0  0  0
   -2.1640   11.4122   27.1371 N   0  0  0  0  0  0  0  0  0  0  0  0
   -2.9702   11.0775   26.2515 N   0  0  0  0  0  0  0  0  0  0  0  0
   -2.8983   11.8764   25.1984 C   0  0  0  0  0  0  0  0  0  0  0  0
   -2.0349   10.9207   27.9802 H   0  0  0  0  0  0  0  0  0  0  0  0
   -3.6776   11.7516   24.0272 C   0  0  0  0  0  0  0  0  0  0  0  0
   -3.7672   10.5139   23.3907 C   0  0  0  0  0  0  0  0  0  0  0  0
   -4.5537   10.4117   22.2561 C   0  0  0  0  0  0  0  0  0  0  0  0
   -5.2622   11.4930   21.7471 C   0  0  0  0  0  0  0  0  0  0  0  0
   -5.1937   12.7284   22.3667 C   0  0  0  0  0  0  0  0  0  0  0  0
   -4.3997   12.8220   23.5043 C   0  0  0  0  0  0  0  0  0  0  0  0
    1.2260   15.7840   22.4120 C   0  0  0  0  0  0  0  0  0  0  0  0
    0.8508   14.5631   23.2212 C   0  0  0  0  0  0  0  0  0  0  0  0
  9 10  1  0  0  0
  9  8  1  0  0  0
 10 11  2  0  0  0
  8  5  1  0  0  0
  8  7  2  0  0  0
 18 17  2  0  0  0
 18 13  1  0  0  0
  5  4  1  0  0  0
 11 13  1  0  0  0
 11  7  1  0  0  0
 17 16  1  0  0  0
 13 14  2  0  0  0
  7  6  1  0  0  0
  4  3  1  0  0  0
 16 15  2  0  0  0
  2  1  2  0  0  0
 14 15  1  0  0  0
  3  6  1  0  0  0
  3  1  1  0  0  0
  1 20  1  0  0  0
 20 19  1  0  0  0
  9 12  1  0  0  0
M  END
> <minimizedAffinity>
-7.30077

$$$$
5TB6_77X_A_1201


 20 22  0  0  0  0  0  0  0  0999 V2000
   -6.0418   14.2109   22.8653 C   0  0  0  0  0  0  0  0  0  0  0  0
   -7.1979   14.0298   22.4401 O   0  0  0  0  0  0  0  0  0  0  0  0
   -5.1322   13.2184   22.8638 N   0  0  0  0  0  0  0  0  0  0  0  0
   -5.4685   11.8661   22.2911 C   0  0  0  0  0  0  0  0  0  0  0  0
   -5.4053   10.8201   23.4049 C   0  0  0  0  0  0  0  0  0  0  0  0
   -3.7879   13.4448   23.4713 C   0  0  0  0  0  0  0  0  0  0  0  0
   -3.4922   12.2646   24.3871 C   0  0  0  0  0  0  0  0  0  0  0  0
   -4.2406   11.0967   24.3419 C   0  0  0  0  0  0  0  0  0  0  0  0
   -3.7158   10.3119   25.2942 N   0  0  0  0  0  0  0  0  0  0  0  0
   -2.7474   10.8525   25.8564 N   0  0  0  0  0  0  0  0  0  0  0  0
   -2.5404   12.0782   25.4013 C   0  0  0  0  0  0  0  0  0  0  0  0
   -4.0560    9.4162   25.5207 H   0  0  0  0  0  0  0  0  0  0  0  0
   -1.5233   12.9511   25.8465 C   0  0  0  0  0  0  0  0  0  0  0  0
   -1.4119   13.2383   27.2068 C   0  0  0  0  0  0  0  0  0  0  0  0
   -0.3942   14.0802   27.6214 C   0  0  0  0  0  0  0  0  0  0  0  0
    0.5203   14.6295   26.7314 C   0  0  0  0  0  0  0  0  0  0  0  0
    0.4330   14.3524   25.3785 C   0  0  0  0  0  0  0  0  0  0  0  0
   -0.5935   13.5075   24.9711 C   0  0  0  0  0  0  0  0  0  0  0  0
   -6.7078   16.2948   24.2165 C   0  0  0  0  0  0  0  0  0  0  0  0
   -5.6106   15.5550   23.4854 C   0  0  0  0  0  0  0  0  0  0  0  0
  9 10  1  0  0  0
  9  8  1  0  0  0
 10 11  2  0  0  0
  8  5  1  0  0  0
  8  7  2  0  0  0
 18 17  2  0  0  0
 18 13  1  0  0  0
  5  4  1  0  0  0
 11 13  1  0  0  0
 11  7  1  0  0  0
 17 16  1  0  0  0
 13 14  2  0  0  0
  7  6  1  0  0  0
  4  3  1  0  0  0
 16 15  2  0  0  0
  2  1  2  0  0  0
 14 15  1  0  0  0
  3  6  1  0  0  0
  3  1  1  0  0  0
  1 20  1  0  0  0
 20 19  1  0  0  0
  9 12  1  0  0  0
M  END
> <minimizedAffinity>
-6.90920

$$$$
5TB6_77X_A_1201


 20 22  0  0  0  0  0  0  0  0999 V2000
   -6.6036   15.0528   22.4917 C   0  0  0  0  0  0  0  0  0  0  0  0
   -7.7341   15.0920   21.9716 O   0  0  0  0  0  0  0  0  0  0  0  0
   -5.6816   14.1555   22.0948 N   0  0  0  0  0  0  0  0  0  0  0  0
   -5.9701   13.2037   20.9633 C   0  0  0  0  0  0  0  0  0  0  0  0
   -5.9489   11.7704   21.4960 C   0  0  0  0  0  0  0  0  0  0  0  0
   -4.3729   14.0736   22.8077 C   0  0  0  0  0  0  0  0  0  0  0  0
   -4.1078   12.6061   23.1156 C   0  0  0  0  0  0  0  0  0  0  0  0
   -4.8370   11.5884   22.5165 C   0  0  0  0  0  0  0  0  0  0  0  0
   -4.3503   10.4561   23.0450 N   0  0  0  0  0  0  0  0  0  0  0  0
   -3.4190   10.6796   23.8380 N   0  0  0  0  0  0  0  0  0  0  0  0
   -3.2060   11.9775   23.9879 C   0  0  0  0  0  0  0  0  0  0  0  0
   -4.6892    9.5569   22.8310 H   0  0  0  0  0  0  0  0  0  0  0  0
   -2.2248   12.5500   24.8270 C   0  0  0  0  0  0  0  0  0  0  0  0
   -1.2522   13.3842   24.2761 C   0  0  0  0  0  0  0  0  0  0  0  0
   -0.3135   13.9500   25.1217 C   0  0  0  0  0  0  0  0  0  0  0  0
   -0.3221   13.7253   26.4928 C   0  0  0  0  0  0  0  0  0  0  0  0
   -1.2821   12.9071   27.0616 C   0  0  0  0  0  0  0  0  0  0  0  0
   -2.2195   12.3416   26.2043 C   0  0  0  0  0  0  0  0  0  0  0  0
   -7.2664   16.0750   24.7561 C   0  0  0  0  0  0  0  0  0  0  0  0
   -6.2226   15.9751   23.6668 C   0  0  0  0  0  0  0  0  0  0  0  0
  9 10  1  0  0  0
  9  8  1  0  0  0
 10 11  2  0  0  0
  8  5  1  0  0  0
  8  7  2  0  0  0
 18 17  2  0  0  0
 18 13  1  0  0  0
  5  4  1  0  0  0
 11 13  1  0  0  0
 11  7  1  0  0  0
 17 16  1  0  0  0
 13 14  2  0  0  0
  7  6  1  0  0  0
  4  3  1  0  0  0
 16 15  2  0  0  0
  2  1  2  0  0  0
 14 15  1  0  0  0
  3  6  1  0  0  0
  3  1  1  0  0  0
  1 20  1  0  0  0
 20 19  1  0  0  0
  9 12  1  0  0  0
M  END
> <minimizedAffinity>
-6.81923

$$$$
5TB6_77X_A_1201


 20 22  0  0  0  0  0  0  0  0999 V2000
   -6.0576   11.4185   20.3291 C   0  0  0  0  0  0  0  0  0  0  0  0
   -6.6741   11.4427   19.2476 O   0  0  0  0  0  0  0  0  0  0  0  0
   -6.1539   12.4301   21.2122 N   0  0  0  0  0  0  0  0  0  0  0  0
   -7.0607   13.6029   20.9442 C   0  0  0  0  0  0  0  0  0  0  0  0
   -6.2162   14.8719   20.8216 C   0  0  0  0  0  0  0  0  0  0  0  0
   -5.3246   12.4116   22.4529 C   0  0  0  0  0  0  0  0  0  0  0  0
   -4.6679   13.7789   22.5877 C   0  0  0  0  0  0  0  0  0  0  0  0
   -5.0838   14.8688   21.8358 C   0  0  0  0  0  0  0  0  0  0  0  0
   -4.2693   15.8706   22.1981 N   0  0  0  0  0  0  0  0  0  0  0  0
   -3.4662   15.5173   23.0792 N   0  0  0  0  0  0  0  0  0  0  0  0
   -3.5968   14.2330   23.3724 C   0  0  0  0  0  0  0  0  0  0  0  0
   -4.3031   16.7760   21.8130 H   0  0  0  0  0  0  0  0  0  0  0  0
   -2.8239   13.5327   24.3247 C   0  0  0  0  0  0  0  0  0  0  0  0
   -1.5779   14.0340   24.7005 C   0  0  0  0  0  0  0  0  0  0  0  0
   -0.8480   13.3410   25.6508 C   0  0  0  0  0  0  0  0  0  0  0  0
   -1.3237   12.1796   26.2469 C   0  0  0  0  0  0  0  0  0  0  0  0
   -2.5603   11.6683   25.8946 C   0  0  0  0  0  0  0  0  0  0  0  0
   -3.2853   12.3700   24.9378 C   0  0  0  0  0  0  0  0  0  0  0  0
   -5.1877    9.0625   19.7771 C   0  0  0  0  0  0  0  0  0  0  0  0
   -5.0934   10.2689   20.6836 C   0  0  0  0  0  0  0  0  0  0  0  0
  9 10  1  0  0  0
  9  8  1  0  0  0
 10 11  2  0  0  0
  8  5  1  0  0  0
  8  7  2  0  0  0
 18 17  2  0  0  0
 18 13  1  0  0  0
  5  4  1  0  0  0
 11 13  1  0  0  0
 11  7  1  0  0  0
 17 16  1  0  0  0
 13 14  2  0  0  0
  7  6  1  0  0  0
  4  3  1  0  0  0
 16 15  2  0  0  0
  2  1  2  0  0  0
 14 15  1  0  0  0
  3  6  1  0  0  0
  3  1  1  0  0  0
  1 20  1  0  0  0
 20 19  1  0  0  0
  9 12  1  0  0  0
M  END
> <minimizedAffinity>
-6.31304

$$$$
5TB6_77X_A_1201


 20 22  0  0  0  0  0  0  0  0999 V2000
   -7.4218   14.4776   21.2163 C   0  0  0  0  0  0  0  0  0  0  0  0
   -7.7963   15.4469   20.5305 O   0  0  0  0  0  0  0  0  0  0  0  0
   -6.6972   14.6520   22.3375 N   0  0  0  0  0  0  0  0  0  0  0  0
   -6.3639   16.0356   22.8318 C   0  0  0  0  0  0  0  0  0  0  0  0
   -4.8473   16.2285   22.7973 C   0  0  0  0  0  0  0  0  0  0  0  0
   -6.1831   13.4635   23.0795 C   0  0  0  0  0  0  0  0  0  0  0  0
   -4.7085   13.7063   23.3721 C   0  0  0  0  0  0  0  0  0  0  0  0
   -4.1301   14.9599   23.2300 C   0  0  0  0  0  0  0  0  0  0  0  0
   -2.8380   14.7825   23.5417 N   0  0  0  0  0  0  0  0  0  0  0  0
   -2.6007   13.6090   23.8772 N   0  0  0  0  0  0  0  0  0  0  0  0
   -3.6767   12.8447   23.7751 C   0  0  0  0  0  0  0  0  0  0  0  0
   -2.1594   15.4951   23.5088 H   0  0  0  0  0  0  0  0  0  0  0  0
   -3.7271   11.4654   24.0741 C   0  0  0  0  0  0  0  0  0  0  0  0
   -3.9582   10.5486   23.0487 C   0  0  0  0  0  0  0  0  0  0  0  0
   -3.9826    9.2006   23.3630 C   0  0  0  0  0  0  0  0  0  0  0  0
   -3.7697    8.7384   24.6558 C   0  0  0  0  0  0  0  0  0  0  0  0
   -3.5313    9.6297   25.6871 C   0  0  0  0  0  0  0  0  0  0  0  0
   -3.5107   10.9816   25.3623 C   0  0  0  0  0  0  0  0  0  0  0  0
   -7.4632   12.7475   19.3144 C   0  0  0  0  0  0  0  0  0  0  0  0
   -7.7005   13.0249   20.7817 C   0  0  0  0  0  0  0  0  0  0  0  0
  9 10  1  0  0  0
  9  8  1  0  0  0
 10 11  2  0  0  0
  8  5  1  0  0  0
  8  7  2  0  0  0
 18 17  2  0  0  0
 18 13  1  0  0  0
  5  4  1  0  0  0
 11 13  1  0  0  0
 11  7  1  0  0  0
 17 16  1  0  0  0
 13 14  2  0  0  0
  7  6  1  0  0  0
  4  3  1  0  0  0
 16 15  2  0  0  0
  2  1  2  0  0  0
 14 15  1  0  0  0
  3  6  1  0  0  0
  3  1  1  0  0  0
  1 20  1  0  0  0
 20 19  1  0  0  0
  9 12  1  0  0  0
M  END
> <minimizedAffinity>
-5.98564

$$$$
5TB6_77X_A_1201


 20 22  0  0  0  0  0  0  0  0999 V2000
   -1.6962   10.2649   27.1983 C   0  0  0  0  0  0  0  0  0  0  0  0
   -1.0226    9.2930   27.5878 O   0  0  0  0  0  0  0  0  0  0  0  0
   -2.8470   10.0924   26.5213 N   0  0  0  0  0  0  0  0  0  0  0  0
   -3.3887    8.7107   26.2625 C   0  0  0  0  0  0  0  0  0  0  0  0
   -3.4142    8.4563   24.7548 C   0  0  0  0  0  0  0  0  0  0  0  0
   -3.5761   11.2792   25.9852 C   0  0  0  0  0  0  0  0  0  0  0  0
   -3.9280   10.9858   24.5331 C   0  0  0  0  0  0  0  0  0  0  0  0
   -3.8396    9.7066   24.0019 C   0  0  0  0  0  0  0  0  0  0  0  0
   -4.1932    9.8406   22.7153 N   0  0  0  0  0  0  0  0  0  0  0  0
   -4.5065   11.0124   22.4421 N   0  0  0  0  0  0  0  0  0  0  0  0
   -4.3457   11.8160   23.4817 C   0  0  0  0  0  0  0  0  0  0  0  0
   -4.2034    9.1007   22.0658 H   0  0  0  0  0  0  0  0  0  0  0  0
   -4.6067   13.2040   23.4859 C   0  0  0  0  0  0  0  0  0  0  0  0
   -3.5406   14.1032   23.4903 C   0  0  0  0  0  0  0  0  0  0  0  0
   -3.8215   15.4586   23.4735 C   0  0  0  0  0  0  0  0  0  0  0  0
   -5.1228   15.9440   23.4368 C   0  0  0  0  0  0  0  0  0  0  0  0
   -6.1955   15.0700   23.4244 C   0  0  0  0  0  0  0  0  0  0  0  0
   -5.9037   13.7106   23.4436 C   0  0  0  0  0  0  0  0  0  0  0  0
   -1.2384   12.1940   28.8357 C   0  0  0  0  0  0  0  0  0  0  0  0
   -1.2141   11.7151   27.4018 C   0  0  0  0  0  0  0  0  0  0  0  0
  9 10  1  0  0  0
  9  8  1  0  0  0
 10 11  2  0  0  0
  8  5  1  0  0  0
  8  7  2  0  0  0
 18 17  2  0  0  0
 18 13  1  0  0  0
  5  4  1  0  0  0
 11 13  1  0  0  0
 11  7  1  0  0  0
 17 16  1  0  0  0
 13 14  2  0  0  0
  7  6  1  0  0  0
  4  3  1  0  0  0
 16 15  2  0  0  0
  2  1  2  0  0  0
 14 15  1  0  0  0
  3  6  1  0  0  0
  3  1  1  0  0  0
  1 20  1  0  0  0
 20 19  1  0  0  0
  9 12  1  0  0  0
M  END
> <minimizedAffinity>
-5.83844

$$$$
5TB6_77X_A_1201


 20 22  0  0  0  0  0  0  0  0999 V2000
   -8.2688   13.7645   19.6271 C   0  0  0  0  0  0  0  0  0  0  0  0
   -9.0556   14.2585   18.7982 O   0  0  0  0  0  0  0  0  0  0  0  0
   -8.1375   14.2832   20.8625 N   0  0  0  0  0  0  0  0  0  0  0  0
   -8.9849   15.4484   21.3029 C   0  0  0  0  0  0  0  0  0  0  0  0
   -8.0795   16.6471   21.5888 C   0  0  0  0  0  0  0  0  0  0  0  0
   -7.1142   13.7257   21.7950 C   0  0  0  0  0  0  0  0  0  0  0  0
   -6.3424   14.8981   22.3854 C   0  0  0  0  0  0  0  0  0  0  0  0
   -6.7955   16.2050   22.2722 C   0  0  0  0  0  0  0  0  0  0  0  0
   -5.8579   16.9502   22.8753 N   0  0  0  0  0  0  0  0  0  0  0  0
   -4.9466   16.2502   23.3503 N   0  0  0  0  0  0  0  0  0  0  0  0
   -5.1227   14.9672   23.0760 C   0  0  0  0  0  0  0  0  0  0  0  0
   -5.8876   17.9325   22.9349 H   0  0  0  0  0  0  0  0  0  0  0  0
   -4.2554   13.9241   23.4687 C   0  0  0  0  0  0  0  0  0  0  0  0
   -2.9291   14.2167   23.7859 C   0  0  0  0  0  0  0  0  0  0  0  0
   -2.1037   13.1807   24.1881 C   0  0  0  0  0  0  0  0  0  0  0  0
   -2.5587   11.8727   24.2990 C   0  0  0  0  0  0  0  0  0  0  0  0
   -3.8725   11.5609   23.9965 C   0  0  0  0  0  0  0  0  0  0  0  0
   -4.6935   12.6075   23.5914 C   0  0  0  0  0  0  0  0  0  0  0  0
   -7.7799   11.7980   18.0441 C   0  0  0  0  0  0  0  0  0  0  0  0
   -7.3486   12.5825   19.2625 C   0  0  0  0  0  0  0  0  0  0  0  0
  9 10  1  0  0  0
  9  8  1  0  0  0
 10 11  2  0  0  0
  8  5  1  0  0  0
  8  7  2  0  0  0
 18 17  2  0  0  0
 18 13  1  0  0  0
  5  4  1  0  0  0
 11 13  1  0  0  0
 11  7  1  0  0  0
 17 16  1  0  0  0
 13 14  2  0  0  0
  7  6  1  0  0  0
  4  3  1  0  0  0
 16 15  2  0  0  0
  2  1  2  0  0  0
 14 15  1  0  0  0
  3  6  1  0  0  0
  3  1  1  0  0  0
  1 20  1  0  0  0
 20 19  1  0  0  0
  9 12  1  0  0  0
M  END
> <minimizedAffinity>
-5.81421

$$$$
5TB6_77X_A_1201


 20 22  0  0  0  0  0  0  0  0999 V2000
   -2.0146   11.9448   27.7646 C   0  0  0  0  0  0  0  0  0  0  0  0
   -1.2279   12.4433   28.5909 O   0  0  0  0  0  0  0  0  0  0  0  0
   -1.8212   12.0878   26.4400 N   0  0  0  0  0  0  0  0  0  0  0  0
   -0.6090   12.8098   25.9119 C   0  0  0  0  0  0  0  0  0  0  0  0
   -1.0600   14.0597   25.1551 C   0  0  0  0  0  0  0  0  0  0  0  0
   -2.8373   11.5610   25.4820 C   0  0  0  0  0  0  0  0  0  0  0  0
   -3.1312   12.6617   24.4717 C   0  0  0  0  0  0  0  0  0  0  0  0
   -2.3188   13.7803   24.3497 C   0  0  0  0  0  0  0  0  0  0  0  0
   -2.8980   14.5271   23.3984 N   0  0  0  0  0  0  0  0  0  0  0  0
   -3.9107   13.9767   22.9319 N   0  0  0  0  0  0  0  0  0  0  0  0
   -4.1720   12.8335   23.5462 C   0  0  0  0  0  0  0  0  0  0  0  0
   -2.5622   15.4048   23.1049 H   0  0  0  0  0  0  0  0  0  0  0  0
   -5.2586   11.9809   23.2517 C   0  0  0  0  0  0  0  0  0  0  0  0
   -6.5615   12.4667   23.3597 C   0  0  0  0  0  0  0  0  0  0  0  0
   -7.6094   11.6183   23.0459 C   0  0  0  0  0  0  0  0  0  0  0  0
   -7.4016   10.3138   22.6152 C   0  0  0  0  0  0  0  0  0  0  0  0
   -6.1172    9.8133   22.4938 C   0  0  0  0  0  0  0  0  0  0  0  0
   -5.0713   10.6720   22.8132 C   0  0  0  0  0  0  0  0  0  0  0  0
   -3.5843   11.2837   29.6910 C   0  0  0  0  0  0  0  0  0  0  0  0
   -3.2909   11.2035   28.2100 C   0  0  0  0  0  0  0  0  0  0  0  0
  9 10  1  0  0  0
  9  8  1  0  0  0
 10 11  2  0  0  0
  8  5  1  0  0  0
  8  7  2  0  0  0
 18 17  2  0  0  0
 18 13  1  0  0  0
  5  4  1  0  0  0
 11 13  1  0  0  0
 11  7  1  0  0  0
 17 16  1  0  0  0
 13 14  2  0  0  0
  7  6  1  0  0  0
  4  3  1  0  0  0
 16 15  2  0  0  0
  2  1  2  0  0  0
 14 15  1  0  0  0
  3  6  1  0  0  0
  3  1  1  0  0  0
  1 20  1  0  0  0
 20 19  1  0  0  0
  9 12  1  0  0  0
M  END
> <minimizedAffinity>
-5.80550

$$$$
5TB6_77X_A_1201


 20 22  0  0  0  0  0  0  0  0999 V2000
   -5.1350    9.3065   24.8726 C   0  0  0  0  0  0  0  0  0  0  0  0
   -6.1701    8.6145   24.8777 O   0  0  0  0  0  0  0  0  0  0  0  0
   -4.2961    9.3184   25.9255 N   0  0  0  0  0  0  0  0  0  0  0  0
   -4.5545    8.4458   27.1262 C   0  0  0  0  0  0  0  0  0  0  0  0
   -4.7964    9.3329   28.3480 C   0  0  0  0  0  0  0  0  0  0  0  0
   -3.1177   10.2343   25.9234 C   0  0  0  0  0  0  0  0  0  0  0  0
   -3.0945   10.9572   27.2634 C   0  0  0  0  0  0  0  0  0  0  0  0
   -3.8658   10.5350   28.3372 C   0  0  0  0  0  0  0  0  0  0  0  0
   -3.6099   11.4160   29.3152 N   0  0  0  0  0  0  0  0  0  0  0  0
   -2.7721   12.2652   28.9643 N   0  0  0  0  0  0  0  0  0  0  0  0
   -2.4100   12.1012   27.7016 C   0  0  0  0  0  0  0  0  0  0  0  0
   -4.0340   11.3932   30.2034 H   0  0  0  0  0  0  0  0  0  0  0  0
   -1.4828   12.9105   27.0089 C   0  0  0  0  0  0  0  0  0  0  0  0
   -0.5662   13.6757   27.7298 C   0  0  0  0  0  0  0  0  0  0  0  0
    0.3462   14.4449   27.0283 C   0  0  0  0  0  0  0  0  0  0  0  0
    0.3848   14.4641   25.6396 C   0  0  0  0  0  0  0  0  0  0  0  0
   -0.5102   13.7072   24.9043 C   0  0  0  0  0  0  0  0  0  0  0  0
   -1.4242   12.9394   25.6174 C   0  0  0  0  0  0  0  0  0  0  0  0
   -4.4611    9.5376   22.4019 C   0  0  0  0  0  0  0  0  0  0  0  0
   -4.7957   10.2436   23.6964 C   0  0  0  0  0  0  0  0  0  0  0  0
  9 10  1  0  0  0
  9  8  1  0  0  0
 10 11  2  0  0  0
  8  5  1  0  0  0
  8  7  2  0  0  0
 18 17  2  0  0  0
 18 13  1  0  0  0
  5  4  1  0  0  0
 11 13  1  0  0  0
 11  7  1  0  0  0
 17 16  1  0  0  0
 13 14  2  0  0  0
  7  6  1  0  0  0
  4  3  1  0  0  0
 16 15  2  0  0  0
  2  1  2  0  0  0
 14 15  1  0  0  0
  3  6  1  0  0  0
  3  1  1  0  0  0
  1 20  1  0  0  0
 20 19  1  0  0  0
  9 12  1  0  0  0
M  END
> <minimizedAffinity>
-5.74989

$$$$
