4B0B_54F_A_1172


 16 17  0  0  0  0  0  0  0  0999 V2000
   21.6778   16.5738   18.0532 N   0  0  0  0  0  0  0  0  0  0  0  0
   21.7401   17.0827   16.8213 C   0  0  0  0  0  0  0  0  0  0  0  0
   22.1317   16.2972   15.7335 C   0  0  0  0  0  0  0  0  0  0  0  0
   22.1561   16.8128   14.4460 C   0  0  0  0  0  0  0  0  0  0  0  0
   21.9283   18.1735   14.2928 C   0  0  0  0  0  0  0  0  0  0  0  0
   21.5146   18.9626   15.3663 C   0  0  0  0  0  0  0  0  0  0  0  0
   21.3704   18.4053   16.6319 C   0  0  0  0  0  0  0  0  0  0  0  0
   21.9352   15.6370   18.2123 H   0  0  0  0  0  0  0  0  0  0  0  0
   21.3743   17.1351   18.8029 H   0  0  0  0  0  0  0  0  0  0  0  0
   22.7255   16.1144   13.3937 O   0  0  0  0  0  0  0  0  0  0  0  0
   23.7410   16.8642   11.3601 N   0  0  0  0  0  0  0  0  0  0  0  0
   22.6534   16.5394   12.0973 C   0  0  0  0  0  0  0  0  0  0  0  0
   21.3923   16.8491   11.6112 C   0  0  0  0  0  0  0  0  0  0  0  0
   21.2470   17.4521   10.3648 C   0  0  0  0  0  0  0  0  0  0  0  0
   22.3575   17.7053    9.5819 C   0  0  0  0  0  0  0  0  0  0  0  0
   23.6214   17.3489   10.0710 C   0  0  0  0  0  0  0  0  0  0  0  0
 11 12  2  0  0  0
 11 16  1  0  0  0
 12 13  1  0  0  0
 12 10  1  0  0  0
 13 14  2  0  0  0
 14 15  1  0  0  0
 15 16  2  0  0  0
  1  2  1  0  0  0
  2  3  2  0  0  0
  2  7  1  0  0  0
  3  4  1  0  0  0
  4  5  2  0  0  0
  4 10  1  0  0  0
  5  6  1  0  0  0
  6  7  2  0  0  0
  1  8  1  0  0  0
  1  9  1  0  0  0
M  END
> <minimizedAffinity>
-8.46647

$$$$
4B0B_54F_A_1172


 16 17  0  0  0  0  0  0  0  0999 V2000
   24.7307   16.9200    9.6470 N   0  0  0  0  0  0  0  0  0  0  0  0
   23.5106   17.0609   10.1683 C   0  0  0  0  0  0  0  0  0  0  0  0
   23.2349   16.6660   11.4805 C   0  0  0  0  0  0  0  0  0  0  0  0
   21.9784   16.8507   12.0381 C   0  0  0  0  0  0  0  0  0  0  0  0
   20.9630   17.2980   11.2039 C   0  0  0  0  0  0  0  0  0  0  0  0
   21.2302   17.7167    9.9003 C   0  0  0  0  0  0  0  0  0  0  0  0
   22.5222   17.6455    9.3915 C   0  0  0  0  0  0  0  0  0  0  0  0
   25.4489   16.5078   10.1794 H   0  0  0  0  0  0  0  0  0  0  0  0
   24.9128   17.2284    8.7299 H   0  0  0  0  0  0  0  0  0  0  0  0
   21.6346   16.2906   13.2577 O   0  0  0  0  0  0  0  0  0  0  0  0
   22.3665   16.3021   15.5365 N   0  0  0  0  0  0  0  0  0  0  0  0
   21.8499   16.9220   14.4500 C   0  0  0  0  0  0  0  0  0  0  0  0
   21.3079   18.1903   14.5914 C   0  0  0  0  0  0  0  0  0  0  0  0
   21.3294   18.8311   15.8273 C   0  0  0  0  0  0  0  0  0  0  0  0
   21.9328   18.2255   16.9133 C   0  0  0  0  0  0  0  0  0  0  0  0
   22.5118   16.9608   16.7431 C   0  0  0  0  0  0  0  0  0  0  0  0
 11 12  2  0  0  0
 11 16  1  0  0  0
 12 13  1  0  0  0
 12 10  1  0  0  0
 13 14  2  0  0  0
 14 15  1  0  0  0
 15 16  2  0  0  0
  1  2  1  0  0  0
  2  3  2  0  0  0
  2  7  1  0  0  0
  3  4  1  0  0  0
  4  5  2  0  0  0
  4 10  1  0  0  0
  5  6  1  0  0  0
  6  7  2  0  0  0
  1  8  1  0  0  0
  1  9  1  0  0  0
M  END
> <minimizedAffinity>
-8.17206

$$$$
4B0B_54F_A_1172


 16 17  0  0  0  0  0  0  0  0999 V2000
   22.4759   19.8020   16.1922 N   0  0  0  0  0  0  0  0  0  0  0  0
   22.4172   18.5474   15.7417 C   0  0  0  0  0  0  0  0  0  0  0  0
   22.0478   18.2694   14.4226 C   0  0  0  0  0  0  0  0  0  0  0  0
   22.0275   16.9689   13.9405 C   0  0  0  0  0  0  0  0  0  0  0  0
   22.2361   15.9414   14.8502 C   0  0  0  0  0  0  0  0  0  0  0  0
   22.6278   16.2063   16.1627 C   0  0  0  0  0  0  0  0  0  0  0  0
   22.7687   17.5182   16.6014 C   0  0  0  0  0  0  0  0  0  0  0  0
   22.2311   20.5495   15.6001 H   0  0  0  0  0  0  0  0  0  0  0  0
   22.7639   19.9801   17.1166 H   0  0  0  0  0  0  0  0  0  0  0  0
   21.4785   16.6593   12.7067 O   0  0  0  0  0  0  0  0  0  0  0  0
   23.4621   16.7774   11.3726 N   0  0  0  0  0  0  0  0  0  0  0  0
   22.1233   16.9020   11.5270 C   0  0  0  0  0  0  0  0  0  0  0  0
   21.3823   17.5076   10.5237 C   0  0  0  0  0  0  0  0  0  0  0  0
   22.0033   17.9472    9.3578 C   0  0  0  0  0  0  0  0  0  0  0  0
   23.3573   17.7418    9.1721 C   0  0  0  0  0  0  0  0  0  0  0  0
   24.0839   17.0917   10.1786 C   0  0  0  0  0  0  0  0  0  0  0  0
 11 12  2  0  0  0
 11 16  1  0  0  0
 12 13  1  0  0  0
 12 10  1  0  0  0
 13 14  2  0  0  0
 14 15  1  0  0  0
 15 16  2  0  0  0
  1  2  1  0  0  0
  2  3  2  0  0  0
  2  7  1  0  0  0
  3  4  1  0  0  0
  4  5  2  0  0  0
  4 10  1  0  0  0
  5  6  1  0  0  0
  6  7  2  0  0  0
  1  8  1  0  0  0
  1  9  1  0  0  0
M  END
> <minimizedAffinity>
-7.90736

$$$$
4B0B_54F_A_1172


 16 17  0  0  0  0  0  0  0  0999 V2000
   22.4746   19.7789   16.1457 N   0  0  0  0  0  0  0  0  0  0  0  0
   22.4696   18.5079   15.7395 C   0  0  0  0  0  0  0  0  0  0  0  0
   22.1496   18.1715   14.4211 C   0  0  0  0  0  0  0  0  0  0  0  0
   22.1853   16.8549   13.9860 C   0  0  0  0  0  0  0  0  0  0  0  0
   22.3985   15.8675   14.9382 C   0  0  0  0  0  0  0  0  0  0  0  0
   22.7412   16.1914   16.2511 C   0  0  0  0  0  0  0  0  0  0  0  0
   22.8270   17.5218   16.6459 C   0  0  0  0  0  0  0  0  0  0  0  0
   22.2245   20.4966   15.5199 H   0  0  0  0  0  0  0  0  0  0  0  0
   22.7284   19.9989   17.0711 H   0  0  0  0  0  0  0  0  0  0  0  0
   21.6844   16.4841   12.7487 O   0  0  0  0  0  0  0  0  0  0  0  0
   21.4012   17.4239   10.5658 N   0  0  0  0  0  0  0  0  0  0  0  0
   22.1828   16.9681   11.5723 C   0  0  0  0  0  0  0  0  0  0  0  0
   23.5355   16.7722   11.3398 C   0  0  0  0  0  0  0  0  0  0  0  0
   24.0875   17.0762   10.0984 C   0  0  0  0  0  0  0  0  0  0  0  0
   23.2989   17.6191    9.1017 C   0  0  0  0  0  0  0  0  0  0  0  0
   21.9422   17.8487    9.3667 C   0  0  0  0  0  0  0  0  0  0  0  0
 11 12  2  0  0  0
 11 16  1  0  0  0
 12 13  1  0  0  0
 12 10  1  0  0  0
 13 14  2  0  0  0
 14 15  1  0  0  0
 15 16  2  0  0  0
  1  2  1  0  0  0
  2  3  2  0  0  0
  2  7  1  0  0  0
  3  4  1  0  0  0
  4  5  2  0  0  0
  4 10  1  0  0  0
  5  6  1  0  0  0
  6  7  2  0  0  0
  1  8  1  0  0  0
  1  9  1  0  0  0
M  END
> <minimizedAffinity>
-7.60691

$$$$
4B0B_54F_A_1172


 16 17  0  0  0  0  0  0  0  0999 V2000
   20.1964   17.7871   10.0663 N   0  0  0  0  0  0  0  0  0  0  0  0
   21.3845   17.4033   10.5367 C   0  0  0  0  0  0  0  0  0  0  0  0
   21.5237   16.9182   11.8402 C   0  0  0  0  0  0  0  0  0  0  0  0
   22.7499   16.4788   12.3169 C   0  0  0  0  0  0  0  0  0  0  0  0
   23.8631   16.6792   11.5121 C   0  0  0  0  0  0  0  0  0  0  0  0
   23.7342   17.1406   10.2019 C   0  0  0  0  0  0  0  0  0  0  0  0
   22.4811   17.4591    9.6904 C   0  0  0  0  0  0  0  0  0  0  0  0
   19.4031   17.7564   10.6486 H   0  0  0  0  0  0  0  0  0  0  0  0
   20.1130   18.1011    9.1369 H   0  0  0  0  0  0  0  0  0  0  0  0
   22.9461   16.1834   13.6562 O   0  0  0  0  0  0  0  0  0  0  0  0
   22.7508   18.3337   14.6888 N   0  0  0  0  0  0  0  0  0  0  0  0
   22.5204   17.0003   14.6651 C   0  0  0  0  0  0  0  0  0  0  0  0
   22.0250   16.3812   15.8025 C   0  0  0  0  0  0  0  0  0  0  0  0
   21.7339   17.1287   16.9404 C   0  0  0  0  0  0  0  0  0  0  0  0
   21.8936   18.5015   16.9294 C   0  0  0  0  0  0  0  0  0  0  0  0
   22.3567   19.1160   15.7583 C   0  0  0  0  0  0  0  0  0  0  0  0
 11 12  2  0  0  0
 11 16  1  0  0  0
 12 13  1  0  0  0
 12 10  1  0  0  0
 13 14  2  0  0  0
 14 15  1  0  0  0
 15 16  2  0  0  0
  1  2  1  0  0  0
  2  3  2  0  0  0
  2  7  1  0  0  0
  3  4  1  0  0  0
  4  5  2  0  0  0
  4 10  1  0  0  0
  5  6  1  0  0  0
  6  7  2  0  0  0
  1  8  1  0  0  0
  1  9  1  0  0  0
M  END
> <minimizedAffinity>
-7.49397

$$$$
4B0B_54F_A_1172


 16 17  0  0  0  0  0  0  0  0999 V2000
   23.0716   18.7530   15.8433 N   0  0  0  0  0  0  0  0  0  0  0  0
   22.2917   18.2628   14.8780 C   0  0  0  0  0  0  0  0  0  0  0  0
   22.8075   17.4185   13.8906 C   0  0  0  0  0  0  0  0  0  0  0  0
   21.9900   16.8739   12.9113 C   0  0  0  0  0  0  0  0  0  0  0  0
   20.6752   17.3152   12.8512 C   0  0  0  0  0  0  0  0  0  0  0  0
   20.1431   18.1390   13.8434 C   0  0  0  0  0  0  0  0  0  0  0  0
   20.9418   18.5780   14.8935 C   0  0  0  0  0  0  0  0  0  0  0  0
   24.0334   18.5430   15.8533 H   0  0  0  0  0  0  0  0  0  0  0  0
   22.6853   19.3247   16.5455 H   0  0  0  0  0  0  0  0  0  0  0  0
   22.5129   16.2011   11.8190 O   0  0  0  0  0  0  0  0  0  0  0  0
   22.3980   17.7630   10.0091 N   0  0  0  0  0  0  0  0  0  0  0  0
   23.0638   16.8443   10.7469 C   0  0  0  0  0  0  0  0  0  0  0  0
   24.2785   16.3606   10.2855 C   0  0  0  0  0  0  0  0  0  0  0  0
   24.8224   16.8422    9.0978 C   0  0  0  0  0  0  0  0  0  0  0  0
   24.1768   17.8401    8.3925 C   0  0  0  0  0  0  0  0  0  0  0  0
   22.9703   18.3465    8.8942 C   0  0  0  0  0  0  0  0  0  0  0  0
 11 12  2  0  0  0
 11 16  1  0  0  0
 12 13  1  0  0  0
 12 10  1  0  0  0
 13 14  2  0  0  0
 14 15  1  0  0  0
 15 16  2  0  0  0
  1  2  1  0  0  0
  2  3  2  0  0  0
  2  7  1  0  0  0
  3  4  1  0  0  0
  4  5  2  0  0  0
  4 10  1  0  0  0
  5  6  1  0  0  0
  6  7  2  0  0  0
  1  8  1  0  0  0
  1  9  1  0  0  0
M  END
> <minimizedAffinity>
-7.30165

$$$$
4B0B_54F_A_1172


 16 17  0  0  0  0  0  0  0  0999 V2000
   26.1078   16.1550    7.9818 N   0  0  0  0  0  0  0  0  0  0  0  0
   25.0456   16.7005    8.5770 C   0  0  0  0  0  0  0  0  0  0  0  0
   24.5998   16.2438    9.8206 C   0  0  0  0  0  0  0  0  0  0  0  0
   23.5219   16.8376   10.4605 C   0  0  0  0  0  0  0  0  0  0  0  0
   22.8052   17.7972    9.7588 C   0  0  0  0  0  0  0  0  0  0  0  0
   23.2530   18.2773    8.5279 C   0  0  0  0  0  0  0  0  0  0  0  0
   24.4094   17.7622    7.9527 C   0  0  0  0  0  0  0  0  0  0  0  0
   26.5761   15.4000    8.4060 H   0  0  0  0  0  0  0  0  0  0  0  0
   26.4233   16.5075    7.1184 H   0  0  0  0  0  0  0  0  0  0  0  0
   22.9474   16.2768   11.5896 O   0  0  0  0  0  0  0  0  0  0  0  0
   23.0702   17.2852   13.7568 N   0  0  0  0  0  0  0  0  0  0  0  0
   22.4160   17.0264   12.6006 C   0  0  0  0  0  0  0  0  0  0  0  0
   21.0690   17.3404   12.5032 C   0  0  0  0  0  0  0  0  0  0  0  0
   20.4092   17.9480   13.5680 C   0  0  0  0  0  0  0  0  0  0  0  0
   21.1037   18.2845   14.7146 C   0  0  0  0  0  0  0  0  0  0  0  0
   22.4736   17.9968   14.7807 C   0  0  0  0  0  0  0  0  0  0  0  0
 11 12  2  0  0  0
 11 16  1  0  0  0
 12 13  1  0  0  0
 12 10  1  0  0  0
 13 14  2  0  0  0
 14 15  1  0  0  0
 15 16  2  0  0  0
  1  2  1  0  0  0
  2  3  2  0  0  0
  2  7  1  0  0  0
  3  4  1  0  0  0
  4  5  2  0  0  0
  4 10  1  0  0  0
  5  6  1  0  0  0
  6  7  2  0  0  0
  1  8  1  0  0  0
  1  9  1  0  0  0
M  END
> <minimizedAffinity>
-7.04194

$$$$
4B0B_54F_A_1172


 16 17  0  0  0  0  0  0  0  0999 V2000
   18.9311   18.0254   12.6790 N   0  0  0  0  0  0  0  0  0  0  0  0
   20.2051   17.7919   12.9995 C   0  0  0  0  0  0  0  0  0  0  0  0
   21.0814   17.1931   12.0899 C   0  0  0  0  0  0  0  0  0  0  0  0
   22.4165   16.9884   12.4058 C   0  0  0  0  0  0  0  0  0  0  0  0
   22.8187   17.2557   13.7073 C   0  0  0  0  0  0  0  0  0  0  0  0
   21.9603   17.8741   14.6166 C   0  0  0  0  0  0  0  0  0  0  0  0
   20.6578   18.1913   14.2475 C   0  0  0  0  0  0  0  0  0  0  0  0
   18.5868   17.7508   11.7985 H   0  0  0  0  0  0  0  0  0  0  0  0
   18.3355   18.4722   13.3230 H   0  0  0  0  0  0  0  0  0  0  0  0
   23.2454   16.2243   11.6006 O   0  0  0  0  0  0  0  0  0  0  0  0
   24.8297   16.2572    9.8069 N   0  0  0  0  0  0  0  0  0  0  0  0
   23.6518   16.6286   10.3605 C   0  0  0  0  0  0  0  0  0  0  0  0
   22.9095   17.6320    9.7567 C   0  0  0  0  0  0  0  0  0  0  0  0
   23.3530   18.2223    8.5764 C   0  0  0  0  0  0  0  0  0  0  0  0
   24.5150   17.7804    7.9726 C   0  0  0  0  0  0  0  0  0  0  0  0
   25.2319   16.7376    8.5746 C   0  0  0  0  0  0  0  0  0  0  0  0
 11 12  2  0  0  0
 11 16  1  0  0  0
 12 13  1  0  0  0
 12 10  1  0  0  0
 13 14  2  0  0  0
 14 15  1  0  0  0
 15 16  2  0  0  0
  1  2  1  0  0  0
  2  3  2  0  0  0
  2  7  1  0  0  0
  3  4  1  0  0  0
  4  5  2  0  0  0
  4 10  1  0  0  0
  5  6  1  0  0  0
  6  7  2  0  0  0
  1  8  1  0  0  0
  1  9  1  0  0  0
M  END
> <minimizedAffinity>
-6.44815

$$$$
4B0B_54F_A_1172


 16 17  0  0  0  0  0  0  0  0999 V2000
   19.4313   17.4579   12.2991 N   0  0  0  0  0  0  0  0  0  0  0  0
   20.6918   17.1391   12.5989 C   0  0  0  0  0  0  0  0  0  0  0  0
   21.6070   16.7931   11.6006 C   0  0  0  0  0  0  0  0  0  0  0  0
   22.9286   16.5029   11.9059 C   0  0  0  0  0  0  0  0  0  0  0  0
   23.2758   16.4168   13.2472 C   0  0  0  0  0  0  0  0  0  0  0  0
   22.3784   16.7818   14.2511 C   0  0  0  0  0  0  0  0  0  0  0  0
   21.0912   17.1943   13.9253 C   0  0  0  0  0  0  0  0  0  0  0  0
   19.1245   17.4262   11.3642 H   0  0  0  0  0  0  0  0  0  0  0  0
   18.8080   17.7248   13.0129 H   0  0  0  0  0  0  0  0  0  0  0  0
   23.7927   15.9702   10.9630 O   0  0  0  0  0  0  0  0  0  0  0  0
   23.4847   17.6710    9.3074 N   0  0  0  0  0  0  0  0  0  0  0  0
   24.1989   16.6609    9.8565 C   0  0  0  0  0  0  0  0  0  0  0  0
   25.2812   16.1443    9.1607 C   0  0  0  0  0  0  0  0  0  0  0  0
   25.6496   16.6835    7.9311 C   0  0  0  0  0  0  0  0  0  0  0  0
   24.9664   17.7687    7.4157 C   0  0  0  0  0  0  0  0  0  0  0  0
   23.9006   18.3043    8.1511 C   0  0  0  0  0  0  0  0  0  0  0  0
 11 12  2  0  0  0
 11 16  1  0  0  0
 12 13  1  0  0  0
 12 10  1  0  0  0
 13 14  2  0  0  0
 14 15  1  0  0  0
 15 16  2  0  0  0
  1  2  1  0  0  0
  2  3  2  0  0  0
  2  7  1  0  0  0
  3  4  1  0  0  0
  4  5  2  0  0  0
  4 10  1  0  0  0
  5  6  1  0  0  0
  6  7  2  0  0  0
  1  8  1  0  0  0
  1  9  1  0  0  0
M  END
> <minimizedAffinity>
-5.58720

$$$$
