3D4Z_GIM_A_1048


 19 20  0  0  0  0  0  0  0  0999 V2000
   30.2559   65.8722    9.9420 C   0  0  0  0  0  0  0  0  0  0  0  0
   31.5275   65.3007    9.3121 C   0  0  0  0  0  0  0  0  0  0  0  0
   29.3505   66.5201    9.1217 N   0  0  0  0  0  0  0  0  0  0  0  0
   32.0420   66.3277    8.3012 C   0  0  0  0  0  0  0  0  0  0  0  0
   31.0069   66.4588    7.2003 C   0  0  0  0  0  0  0  0  0  0  0  0
   29.5960   66.8175    7.7028 C   0  0  0  0  0  0  0  0  0  0  0  0
   28.6195   66.5074   11.1789 C   0  0  0  0  0  0  0  0  0  0  0  0
   28.3162   66.8715    9.9314 C   0  0  0  0  0  0  0  0  0  0  0  0
   29.8098   65.8791   11.1784 N   0  0  0  0  0  0  0  0  0  0  0  0
   33.2647   65.7537    7.7516 O   0  0  0  0  0  0  0  0  0  0  0  0
   32.5222   64.9250   10.2299 O   0  0  0  0  0  0  0  0  0  0  0  0
   31.3899   67.5101    6.3021 O   0  0  0  0  0  0  0  0  0  0  0  0
   30.2642   65.4942   11.9624 H   0  0  0  0  0  0  0  0  0  0  0  0
   33.0696   64.8849    7.3668 H   0  0  0  0  0  0  0  0  0  0  0  0
   32.8203   65.7063   10.7215 H   0  0  0  0  0  0  0  0  0  0  0  0
   31.4050   68.3541    6.7799 H   0  0  0  0  0  0  0  0  0  0  0  0
   28.5990   66.0480    6.7928 C   0  0  0  0  0  0  0  0  0  0  0  0
   29.2790   64.9356    6.1890 O   0  0  0  0  0  0  0  0  0  0  0  0
   30.0245   65.2606    5.6603 H   0  0  0  0  0  0  0  0  0  0  0  0
  1  2  1  0  0  0
  1  3  2  0  0  0
  1  9  1  0  0  0
  2  4  1  0  0  0
  2 11  1  0  0  0
  3  6  1  0  0  0
  3  8  1  0  0  0
  4  5  1  0  0  0
  4 10  1  0  0  0
  5  6  1  0  0  0
  5 12  1  0  0  0
  6 17  1  0  0  0
 17 18  1  0  0  0
  7  8  2  0  0  0
  7  9  1  0  0  0
  9 13  1  0  0  0
 10 14  1  0  0  0
 11 15  1  0  0  0
 12 16  1  0  0  0
 18 19  1  0  0  0
M  CHG 1   3   1
M  END
> <minimizedAffinity>
-8.42659

$$$$
3D4Z_GIM_A_1048


 19 20  0  0  0  0  0  0  0  0999 V2000
   29.4079   66.4431    7.5175 C   0  0  0  0  0  0  0  0  0  0  0  0
   30.8783   66.8414    7.3783 C   0  0  0  0  0  0  0  0  0  0  0  0
   28.9787   65.9271    8.7266 N   0  0  0  0  0  0  0  0  0  0  0  0
   31.7151   65.7596    8.0644 C   0  0  0  0  0  0  0  0  0  0  0  0
   31.3765   65.7744    9.5428 C   0  0  0  0  0  0  0  0  0  0  0  0
   29.8761   65.6065    9.8465 C   0  0  0  0  0  0  0  0  0  0  0  0
   27.3100   66.0278    7.3223 C   0  0  0  0  0  0  0  0  0  0  0  0
   27.6442   65.7140    8.5757 C   0  0  0  0  0  0  0  0  0  0  0  0
   28.3975   66.4902    6.6780 N   0  0  0  0  0  0  0  0  0  0  0  0
   33.1033   66.1665    7.8804 O   0  0  0  0  0  0  0  0  0  0  0  0
   31.3032   67.0752    6.0601 O   0  0  0  0  0  0  0  0  0  0  0  0
   32.0410   64.6857   10.1999 O   0  0  0  0  0  0  0  0  0  0  0  0
   28.4303   66.8065    5.7462 H   0  0  0  0  0  0  0  0  0  0  0  0
   33.2309   67.0555    8.2468 H   0  0  0  0  0  0  0  0  0  0  0  0
   31.2191   66.2585    5.5436 H   0  0  0  0  0  0  0  0  0  0  0  0
   31.7153   63.8449    9.8422 H   0  0  0  0  0  0  0  0  0  0  0  0
   29.5751   66.5076   11.0758 C   0  0  0  0  0  0  0  0  0  0  0  0
   29.1033   65.6848   12.1551 O   0  0  0  0  0  0  0  0  0  0  0  0
   28.2964   65.2221   11.8800 H   0  0  0  0  0  0  0  0  0  0  0  0
  1  2  1  0  0  0
  1  3  2  0  0  0
  1  9  1  0  0  0
  2  4  1  0  0  0
  2 11  1  0  0  0
  3  6  1  0  0  0
  3  8  1  0  0  0
  4  5  1  0  0  0
  4 10  1  0  0  0
  5  6  1  0  0  0
  5 12  1  0  0  0
  6 17  1  0  0  0
 17 18  1  0  0  0
  7  8  2  0  0  0
  7  9  1  0  0  0
  9 13  1  0  0  0
 10 14  1  0  0  0
 11 15  1  0  0  0
 12 16  1  0  0  0
 18 19  1  0  0  0
M  CHG 1   3   1
M  END
> <minimizedAffinity>
-7.43670

$$$$
3D4Z_GIM_A_1048


 19 20  0  0  0  0  0  0  0  0999 V2000
   25.5044   63.4910   13.3508 C   0  0  0  0  0  0  0  0  0  0  0  0
   26.9233   63.1132   13.7801 C   0  0  0  0  0  0  0  0  0  0  0  0
   25.2112   63.5145   11.9996 N   0  0  0  0  0  0  0  0  0  0  0  0
   27.8939   63.8042   12.8201 C   0  0  0  0  0  0  0  0  0  0  0  0
   27.6686   63.2304   11.4343 C   0  0  0  0  0  0  0  0  0  0  0  0
   26.2139   63.3337   10.9394 C   0  0  0  0  0  0  0  0  0  0  0  0
   23.4380   64.0426   13.1586 C   0  0  0  0  0  0  0  0  0  0  0  0
   23.8905   63.8287   11.9215 C   0  0  0  0  0  0  0  0  0  0  0  0
   24.4327   63.8195   14.0374 N   0  0  0  0  0  0  0  0  0  0  0  0
   29.2270   63.4395   13.2854 O   0  0  0  0  0  0  0  0  0  0  0  0
   27.2266   63.3920   15.1229 O   0  0  0  0  0  0  0  0  0  0  0  0
   28.4663   63.9468   10.4809 O   0  0  0  0  0  0  0  0  0  0  0  0
   24.3691   63.8896   15.0174 H   0  0  0  0  0  0  0  0  0  0  0  0
   29.3103   62.4733   13.3027 H   0  0  0  0  0  0  0  0  0  0  0  0
   27.1694   64.3483   15.2754 H   0  0  0  0  0  0  0  0  0  0  0  0
   28.1829   64.8741   10.4540 H   0  0  0  0  0  0  0  0  0  0  0  0
   25.9358   62.0396   10.1258 C   0  0  0  0  0  0  0  0  0  0  0  0
   27.0883   61.1845   10.1978 O   0  0  0  0  0  0  0  0  0  0  0  0
   27.8573   61.6468    9.8292 H   0  0  0  0  0  0  0  0  0  0  0  0
  1  2  1  0  0  0
  1  3  2  0  0  0
  1  9  1  0  0  0
  2  4  1  0  0  0
  2 11  1  0  0  0
  3  6  1  0  0  0
  3  8  1  0  0  0
  4  5  1  0  0  0
  4 10  1  0  0  0
  5  6  1  0  0  0
  5 12  1  0  0  0
  6 17  1  0  0  0
 17 18  1  0  0  0
  7  8  2  0  0  0
  7  9  1  0  0  0
  9 13  1  0  0  0
 10 14  1  0  0  0
 11 15  1  0  0  0
 12 16  1  0  0  0
 18 19  1  0  0  0
M  CHG 1   3   1
M  END
> <minimizedAffinity>
-6.54440

$$$$
3D4Z_GIM_A_1048


 19 20  0  0  0  0  0  0  0  0999 V2000
   26.0450   64.3224    9.7697 C   0  0  0  0  0  0  0  0  0  0  0  0
   26.5479   65.7599    9.6257 C   0  0  0  0  0  0  0  0  0  0  0  0
   26.7572   63.4551   10.5779 N   0  0  0  0  0  0  0  0  0  0  0  0
   28.0715   65.7037    9.4959 C   0  0  0  0  0  0  0  0  0  0  0  0
   28.6311   65.1525   10.7934 C   0  0  0  0  0  0  0  0  0  0  0  0
   28.0474   63.7868   11.2005 C   0  0  0  0  0  0  0  0  0  0  0  0
   25.0264   62.4324    9.7264 C   0  0  0  0  0  0  0  0  0  0  0  0
   26.0625   62.2864   10.5548 C   0  0  0  0  0  0  0  0  0  0  0  0
   25.0116   63.6933    9.2557 N   0  0  0  0  0  0  0  0  0  0  0  0
   28.4993   67.0882    9.3323 O   0  0  0  0  0  0  0  0  0  0  0  0
   25.9592   66.4881    8.5788 O   0  0  0  0  0  0  0  0  0  0  0  0
   30.0468   64.9587   10.6633 O   0  0  0  0  0  0  0  0  0  0  0  0
   24.3469   64.0754    8.6382 H   0  0  0  0  0  0  0  0  0  0  0  0
   28.1867   67.6143   10.0850 H   0  0  0  0  0  0  0  0  0  0  0  0
   26.1725   66.0664    7.7317 H   0  0  0  0  0  0  0  0  0  0  0  0
   30.2207   64.2975    9.9753 H   0  0  0  0  0  0  0  0  0  0  0  0
   27.9286   63.8062   12.7496 C   0  0  0  0  0  0  0  0  0  0  0  0
   29.2471   63.7905   13.3204 O   0  0  0  0  0  0  0  0  0  0  0  0
   29.7133   62.9891   13.0355 H   0  0  0  0  0  0  0  0  0  0  0  0
  1  2  1  0  0  0
  1  3  2  0  0  0
  1  9  1  0  0  0
  2  4  1  0  0  0
  2 11  1  0  0  0
  3  6  1  0  0  0
  3  8  1  0  0  0
  4  5  1  0  0  0
  4 10  1  0  0  0
  5  6  1  0  0  0
  5 12  1  0  0  0
  6 17  1  0  0  0
 17 18  1  0  0  0
  7  8  2  0  0  0
  7  9  1  0  0  0
  9 13  1  0  0  0
 10 14  1  0  0  0
 11 15  1  0  0  0
 12 16  1  0  0  0
 18 19  1  0  0  0
M  CHG 1   3   1
M  END
> <minimizedAffinity>
-6.19520

$$$$
3D4Z_GIM_A_1048


 19 20  0  0  0  0  0  0  0  0999 V2000
   24.3764   64.4189    9.2635 C   0  0  0  0  0  0  0  0  0  0  0  0
   24.7903   63.0709    8.6702 C   0  0  0  0  0  0  0  0  0  0  0  0
   25.1726   64.9756   10.2477 N   0  0  0  0  0  0  0  0  0  0  0  0
   25.2731   62.1891    9.8237 C   0  0  0  0  0  0  0  0  0  0  0  0
   26.5158   62.8290   10.4126 C   0  0  0  0  0  0  0  0  0  0  0  0
   26.3195   64.2892   10.8608 C   0  0  0  0  0  0  0  0  0  0  0  0
   23.4832   66.2907    9.8200 C   0  0  0  0  0  0  0  0  0  0  0  0
   24.5975   66.1715   10.5446 C   0  0  0  0  0  0  0  0  0  0  0  0
   23.3585   65.2144    9.0214 N   0  0  0  0  0  0  0  0  0  0  0  0
   25.6270   60.9120    9.2152 O   0  0  0  0  0  0  0  0  0  0  0  0
   23.7995   62.4353    7.9039 O   0  0  0  0  0  0  0  0  0  0  0  0
   26.9228   62.1039   11.5819 O   0  0  0  0  0  0  0  0  0  0  0  0
   22.6355   65.0524    8.3731 H   0  0  0  0  0  0  0  0  0  0  0  0
   26.2919   61.0563    8.5240 H   0  0  0  0  0  0  0  0  0  0  0  0
   23.0357   62.2329    8.4666 H   0  0  0  0  0  0  0  0  0  0  0  0
   26.2274   62.1607   12.2558 H   0  0  0  0  0  0  0  0  0  0  0  0
   27.6474   65.0283   10.5376 C   0  0  0  0  0  0  0  0  0  0  0  0
   28.6664   64.0565   10.2515 O   0  0  0  0  0  0  0  0  0  0  0  0
   28.7889   63.4801   11.0220 H   0  0  0  0  0  0  0  0  0  0  0  0
  1  2  1  0  0  0
  1  3  2  0  0  0
  1  9  1  0  0  0
  2  4  1  0  0  0
  2 11  1  0  0  0
  3  6  1  0  0  0
  3  8  1  0  0  0
  4  5  1  0  0  0
  4 10  1  0  0  0
  5  6  1  0  0  0
  5 12  1  0  0  0
  6 17  1  0  0  0
 17 18  1  0  0  0
  7  8  2  0  0  0
  7  9  1  0  0  0
  9 13  1  0  0  0
 10 14  1  0  0  0
 11 15  1  0  0  0
 12 16  1  0  0  0
 18 19  1  0  0  0
M  CHG 1   3   1
M  END
> <minimizedAffinity>
-6.13533

$$$$
3D4Z_GIM_A_1048


 19 20  0  0  0  0  0  0  0  0999 V2000
   26.7338   64.2608   10.0551 C   0  0  0  0  0  0  0  0  0  0  0  0
   27.6704   63.6046   11.0713 C   0  0  0  0  0  0  0  0  0  0  0  0
   27.1927   65.3608    9.3537 N   0  0  0  0  0  0  0  0  0  0  0  0
   28.3849   64.7253   11.8294 C   0  0  0  0  0  0  0  0  0  0  0  0
   29.2468   65.4841   10.8385 C   0  0  0  0  0  0  0  0  0  0  0  0
   28.4761   66.0270    9.6208 C   0  0  0  0  0  0  0  0  0  0  0  0
   25.1562   64.8754    8.7342 C   0  0  0  0  0  0  0  0  0  0  0  0
   26.1843   65.6948    8.5049 C   0  0  0  0  0  0  0  0  0  0  0  0
   25.5046   63.9841    9.6807 N   0  0  0  0  0  0  0  0  0  0  0  0
   29.2398   64.0538   12.8014 O   0  0  0  0  0  0  0  0  0  0  0  0
   27.0495   62.6951   11.9432 O   0  0  0  0  0  0  0  0  0  0  0  0
   29.8301   66.6256   11.4830 O   0  0  0  0  0  0  0  0  0  0  0  0
   24.9407   63.2564   10.0296 H   0  0  0  0  0  0  0  0  0  0  0  0
   29.8384   63.4457   12.3399 H   0  0  0  0  0  0  0  0  0  0  0  0
   26.3902   63.1611   12.4808 H   0  0  0  0  0  0  0  0  0  0  0  0
   29.1271   67.2297   11.7690 H   0  0  0  0  0  0  0  0  0  0  0  0
   29.4335   65.8977    8.4040 C   0  0  0  0  0  0  0  0  0  0  0  0
   30.1097   64.6318    8.4727 O   0  0  0  0  0  0  0  0  0  0  0  0
   30.6167   64.5805    9.2981 H   0  0  0  0  0  0  0  0  0  0  0  0
  1  2  1  0  0  0
  1  3  2  0  0  0
  1  9  1  0  0  0
  2  4  1  0  0  0
  2 11  1  0  0  0
  3  6  1  0  0  0
  3  8  1  0  0  0
  4  5  1  0  0  0
  4 10  1  0  0  0
  5  6  1  0  0  0
  5 12  1  0  0  0
  6 17  1  0  0  0
 17 18  1  0  0  0
  7  8  2  0  0  0
  7  9  1  0  0  0
  9 13  1  0  0  0
 10 14  1  0  0  0
 11 15  1  0  0  0
 12 16  1  0  0  0
 18 19  1  0  0  0
M  CHG 1   3   1
M  END
> <minimizedAffinity>
-6.13296

$$$$
3D4Z_GIM_A_1048


 19 20  0  0  0  0  0  0  0  0999 V2000
   28.1680   64.2288   11.5866 C   0  0  0  0  0  0  0  0  0  0  0  0
   28.8825   64.9670   10.4531 C   0  0  0  0  0  0  0  0  0  0  0  0
   26.7975   64.0648   11.5025 N   0  0  0  0  0  0  0  0  0  0  0  0
   28.0126   66.1638   10.0631 C   0  0  0  0  0  0  0  0  0  0  0  0
   26.7058   65.6304    9.5076 C   0  0  0  0  0  0  0  0  0  0  0  0
   25.9608   64.6758   10.4590 C   0  0  0  0  0  0  0  0  0  0  0  0
   27.5493   63.1455   13.3345 C   0  0  0  0  0  0  0  0  0  0  0  0
   26.4512   63.3446   12.6027 C   0  0  0  0  0  0  0  0  0  0  0  0
   28.6075   63.6800   12.6972 N   0  0  0  0  0  0  0  0  0  0  0  0
   28.7457   66.8492    9.0051 O   0  0  0  0  0  0  0  0  0  0  0  0
   30.2030   65.3502   10.7398 O   0  0  0  0  0  0  0  0  0  0  0  0
   25.8093   66.7216    9.2543 O   0  0  0  0  0  0  0  0  0  0  0  0
   29.5419   63.6629   13.0069 H   0  0  0  0  0  0  0  0  0  0  0  0
   28.9158   66.2312    8.2770 H   0  0  0  0  0  0  0  0  0  0  0  0
   30.2044   65.9761   11.4809 H   0  0  0  0  0  0  0  0  0  0  0  0
   25.6013   67.1696   10.0891 H   0  0  0  0  0  0  0  0  0  0  0  0
   25.3065   63.5880    9.5631 C   0  0  0  0  0  0  0  0  0  0  0  0
   25.5020   63.9381    8.1834 O   0  0  0  0  0  0  0  0  0  0  0  0
   25.0930   64.7999    8.0074 H   0  0  0  0  0  0  0  0  0  0  0  0
  1  2  1  0  0  0
  1  3  2  0  0  0
  1  9  1  0  0  0
  2  4  1  0  0  0
  2 11  1  0  0  0
  3  6  1  0  0  0
  3  8  1  0  0  0
  4  5  1  0  0  0
  4 10  1  0  0  0
  5  6  1  0  0  0
  5 12  1  0  0  0
  6 17  1  0  0  0
 17 18  1  0  0  0
  7  8  2  0  0  0
  7  9  1  0  0  0
  9 13  1  0  0  0
 10 14  1  0  0  0
 11 15  1  0  0  0
 12 16  1  0  0  0
 18 19  1  0  0  0
M  CHG 1   3   1
M  END
> <minimizedAffinity>
-6.01235

$$$$
3D4Z_GIM_A_1048


 19 20  0  0  0  0  0  0  0  0999 V2000
   28.6094   64.8596   11.2824 C   0  0  0  0  0  0  0  0  0  0  0  0
   28.2305   64.1636   12.5910 C   0  0  0  0  0  0  0  0  0  0  0  0
   27.6467   64.9729   10.2960 N   0  0  0  0  0  0  0  0  0  0  0  0
   27.3844   62.9400   12.2332 C   0  0  0  0  0  0  0  0  0  0  0  0
   26.1016   63.4308   11.5897 C   0  0  0  0  0  0  0  0  0  0  0  0
   26.3195   64.3443   10.3692 C   0  0  0  0  0  0  0  0  0  0  0  0
   29.5102   65.8962    9.6316 C   0  0  0  0  0  0  0  0  0  0  0  0
   28.2415   65.6652    9.2881 C   0  0  0  0  0  0  0  0  0  0  0  0
   29.7285   65.4103   10.8676 N   0  0  0  0  0  0  0  0  0  0  0  0
   27.0741   62.2965   13.5045 O   0  0  0  0  0  0  0  0  0  0  0  0
   29.3168   63.8268   13.4152 O   0  0  0  0  0  0  0  0  0  0  0  0
   25.3399   62.3100   11.1184 O   0  0  0  0  0  0  0  0  0  0  0  0
   30.5737   65.4585   11.3702 H   0  0  0  0  0  0  0  0  0  0  0  0
   26.6255   62.9297   14.0865 H   0  0  0  0  0  0  0  0  0  0  0  0
   29.8875   63.1919   12.9546 H   0  0  0  0  0  0  0  0  0  0  0  0
   25.8418   61.8436   10.4318 H   0  0  0  0  0  0  0  0  0  0  0  0
   25.1977   65.4181   10.4207 C   0  0  0  0  0  0  0  0  0  0  0  0
   23.9204   64.7649   10.3409 O   0  0  0  0  0  0  0  0  0  0  0  0
   23.8628   64.2677    9.5100 H   0  0  0  0  0  0  0  0  0  0  0  0
  1  2  1  0  0  0
  1  3  2  0  0  0
  1  9  1  0  0  0
  2  4  1  0  0  0
  2 11  1  0  0  0
  3  6  1  0  0  0
  3  8  1  0  0  0
  4  5  1  0  0  0
  4 10  1  0  0  0
  5  6  1  0  0  0
  5 12  1  0  0  0
  6 17  1  0  0  0
 17 18  1  0  0  0
  7  8  2  0  0  0
  7  9  1  0  0  0
  9 13  1  0  0  0
 10 14  1  0  0  0
 11 15  1  0  0  0
 12 16  1  0  0  0
 18 19  1  0  0  0
M  CHG 1   3   1
M  END
> <minimizedAffinity>
-5.98039

$$$$
3D4Z_GIM_A_1048


 19 20  0  0  0  0  0  0  0  0999 V2000
   26.2637   64.9877    9.3469 C   0  0  0  0  0  0  0  0  0  0  0  0
   27.3808   65.5337   10.2382 C   0  0  0  0  0  0  0  0  0  0  0  0
   25.5734   63.8670    9.7712 N   0  0  0  0  0  0  0  0  0  0  0  0
   28.1658   64.3363   10.7777 C   0  0  0  0  0  0  0  0  0  0  0  0
   27.2347   63.5255   11.6586 C   0  0  0  0  0  0  0  0  0  0  0  0
   25.9356   63.0819   10.9606 C   0  0  0  0  0  0  0  0  0  0  0  0
   24.7861   64.5479    7.8520 C   0  0  0  0  0  0  0  0  0  0  0  0
   24.6262   63.6446    8.8212 C   0  0  0  0  0  0  0  0  0  0  0  0
   25.7875   65.3825    8.1871 N   0  0  0  0  0  0  0  0  0  0  0  0
   29.2320   64.9058   11.5934 O   0  0  0  0  0  0  0  0  0  0  0  0
   28.2201   66.4755    9.6206 O   0  0  0  0  0  0  0  0  0  0  0  0
   27.8941   62.3217   12.0767 O   0  0  0  0  0  0  0  0  0  0  0  0
   26.1058   66.1500    7.6590 H   0  0  0  0  0  0  0  0  0  0  0  0
   28.8461   65.4677   12.2835 H   0  0  0  0  0  0  0  0  0  0  0  0
   28.6807   66.0587    8.8756 H   0  0  0  0  0  0  0  0  0  0  0  0
   28.0961   61.7772   11.2998 H   0  0  0  0  0  0  0  0  0  0  0  0
   24.8157   63.1519   12.0353 C   0  0  0  0  0  0  0  0  0  0  0  0
   25.3091   62.5910   13.2627 O   0  0  0  0  0  0  0  0  0  0  0  0
   25.5674   61.6677   13.1154 H   0  0  0  0  0  0  0  0  0  0  0  0
  1  2  1  0  0  0
  1  3  2  0  0  0
  1  9  1  0  0  0
  2  4  1  0  0  0
  2 11  1  0  0  0
  3  6  1  0  0  0
  3  8  1  0  0  0
  4  5  1  0  0  0
  4 10  1  0  0  0
  5  6  1  0  0  0
  5 12  1  0  0  0
  6 17  1  0  0  0
 17 18  1  0  0  0
  7  8  2  0  0  0
  7  9  1  0  0  0
  9 13  1  0  0  0
 10 14  1  0  0  0
 11 15  1  0  0  0
 12 16  1  0  0  0
 18 19  1  0  0  0
M  CHG 1   3   1
M  END
> <minimizedAffinity>
-5.96304

$$$$
3D4Z_GIM_A_1048


 19 20  0  0  0  0  0  0  0  0999 V2000
   26.2946   63.4512   12.2822 C   0  0  0  0  0  0  0  0  0  0  0  0
   27.8003   63.5656   12.0366 C   0  0  0  0  0  0  0  0  0  0  0  0
   25.4351   64.0701   11.3930 N   0  0  0  0  0  0  0  0  0  0  0  0
   28.0878   65.0046   11.6033 C   0  0  0  0  0  0  0  0  0  0  0  0
   27.3902   65.2417   10.2775 C   0  0  0  0  0  0  0  0  0  0  0  0
   25.8783   64.9495   10.3010 C   0  0  0  0  0  0  0  0  0  0  0  0
   24.2934   63.0517   12.9505 C   0  0  0  0  0  0  0  0  0  0  0  0
   24.1835   63.7631   11.8268 C   0  0  0  0  0  0  0  0  0  0  0  0
   25.5966   62.8499   13.2197 N   0  0  0  0  0  0  0  0  0  0  0  0
   29.5318   65.0716   11.4105 O   0  0  0  0  0  0  0  0  0  0  0  0
   28.6053   63.1733   13.1187 O   0  0  0  0  0  0  0  0  0  0  0  0
   27.5245   66.6201    9.9025 O   0  0  0  0  0  0  0  0  0  0  0  0
   25.9611   62.3434   13.9811 H   0  0  0  0  0  0  0  0  0  0  0  0
   29.8028   64.4028   10.7623 H   0  0  0  0  0  0  0  0  0  0  0  0
   28.4342   63.7544   13.8763 H   0  0  0  0  0  0  0  0  0  0  0  0
   27.0819   67.1788   10.5605 H   0  0  0  0  0  0  0  0  0  0  0  0
   25.5298   64.3360    8.9168 C   0  0  0  0  0  0  0  0  0  0  0  0
   26.3559   64.9471    7.9125 O   0  0  0  0  0  0  0  0  0  0  0  0
   26.1947   65.9035    7.8992 H   0  0  0  0  0  0  0  0  0  0  0  0
  1  2  1  0  0  0
  1  3  2  0  0  0
  1  9  1  0  0  0
  2  4  1  0  0  0
  2 11  1  0  0  0
  3  6  1  0  0  0
  3  8  1  0  0  0
  4  5  1  0  0  0
  4 10  1  0  0  0
  5  6  1  0  0  0
  5 12  1  0  0  0
  6 17  1  0  0  0
 17 18  1  0  0  0
  7  8  2  0  0  0
  7  9  1  0  0  0
  9 13  1  0  0  0
 10 14  1  0  0  0
 11 15  1  0  0  0
 12 16  1  0  0  0
 18 19  1  0  0  0
M  CHG 1   3   1
M  END
> <minimizedAffinity>
-5.83087

$$$$
