2YAY_DUP_A_1265


 35 36  0  0  0  0  0  0  0  0999 V2000
  -13.8282   31.3155   -4.7188 O   0  0  0  0  0  0  0  0  0  0  0  0
  -14.5163   31.7367   -6.1550 P   0  0  0  0  0  0  0  0  0  0  0  0
  -14.4018   30.5301   -6.9990 O   0  0  0  0  0  0  0  0  0  0  0  0
  -13.8713   33.0370   -6.5781 O   0  0  0  0  0  0  0  0  0  0  0  0
  -12.9181   32.9016   -6.6967 H   0  0  0  0  0  0  0  0  0  0  0  0
  -16.1463   32.0876   -5.9817 N   0  0  0  0  0  0  0  0  0  0  0  0
  -16.2314   32.4877   -5.0473 H   0  0  0  0  0  0  0  0  0  0  0  0
  -17.0659   33.0749   -6.9572 P   0  0  0  0  0  0  0  0  0  0  0  0
  -18.1497   32.3739   -7.8679 O   0  0  0  0  0  0  0  0  0  0  0  0
  -16.1526   34.0032   -7.7536 O   0  0  0  0  0  0  0  0  0  0  0  0
  -15.6842   33.4920   -8.4319 H   0  0  0  0  0  0  0  0  0  0  0  0
  -17.9098   33.8175   -5.7839 O   0  0  0  0  0  0  0  0  0  0  0  0
  -17.1264   34.2162   -4.3802 P   0  0  0  0  0  0  0  0  0  0  0  0
  -17.0591   32.9882   -3.4646 O   0  0  0  0  0  0  0  0  0  0  0  0
  -17.8706   35.3056   -3.5601 O   0  0  0  0  0  0  0  0  0  0  0  0
  -15.8366   34.6925   -4.9881 O   0  0  0  0  0  0  0  0  0  0  0  0
  -18.6901   34.9340   -3.1976 H   0  0  0  0  0  0  0  0  0  0  0  0
  -15.4254   33.9671   -5.4837 H   0  0  0  0  0  0  0  0  0  0  0  0
  -13.0319   32.2709   -4.0033 C   0  0  0  0  0  0  0  0  0  0  0  0
  -10.4572   30.5397   -2.2673 C   0  0  0  0  0  0  0  0  0  0  0  0
  -10.4042   31.8840   -1.6224 C   0  0  0  0  0  0  0  0  0  0  0  0
  -11.7555   32.5170   -1.8172 C   0  0  0  0  0  0  0  0  0  0  0  0
  -12.5177   32.6085   -0.5840 O   0  0  0  0  0  0  0  0  0  0  0  0
  -11.4380   30.7239   -3.3207 O   0  0  0  0  0  0  0  0  0  0  0  0
  -12.4065   31.5927   -2.8025 C   0  0  0  0  0  0  0  0  0  0  0  0
  -12.6261   31.7225   -0.2043 H   0  0  0  0  0  0  0  0  0  0  0  0
   -5.7257   28.4132   -4.0477 O   0  0  0  0  0  0  0  0  0  0  0  0
   -6.8343   28.9706   -3.5752 C   0  0  0  0  0  0  0  0  0  0  0  0
   -7.8602   29.1828   -4.5190 C   0  0  0  0  0  0  0  0  0  0  0  0
   -9.0533   29.6749   -4.0563 C   0  0  0  0  0  0  0  0  0  0  0  0
   -7.0213   29.2450   -2.2658 N   0  0  0  0  0  0  0  0  0  0  0  0
   -8.1865   29.7415   -1.8539 C   0  0  0  0  0  0  0  0  0  0  0  0
   -8.3441   30.0649   -0.6626 O   0  0  0  0  0  0  0  0  0  0  0  0
   -9.1895   29.9962   -2.7501 N   0  0  0  0  0  0  0  0  0  0  0  0
   -6.2987   29.0785   -1.6181 H   0  0  0  0  0  0  0  0  0  0  0  0
 27 28  2  0  0  0
 28 29  1  0  0  0
 28 31  1  0  0  0
 29 30  2  0  0  0
 30 34  1  0  0  0
 31 32  1  0  0  0
 32 33  2  0  0  0
 32 34  1  0  0  0
 34 20  1  0  0  0
 20 21  1  0  0  0
 20 24  1  0  0  0
 21 22  1  0  0  0
 22 23  1  0  0  0
 22 25  1  0  0  0
 24 25  1  0  0  0
 25 19  1  0  0  0
 19  1  1  0  0  0
  1  2  1  0  0  0
  2  3  2  0  0  0
  2  4  1  0  0  0
  2  6  1  0  0  0
  6  8  1  0  0  0
  8  9  2  0  0  0
  8 10  1  0  0  0
  8 12  1  0  0  0
 12 13  1  0  0  0
 13 14  2  0  0  0
 13 15  1  0  0  0
 13 16  1  0  0  0
 31 35  1  0  0  0
 23 26  1  0  0  0
  4  5  1  0  0  0
  6  7  1  0  0  0
 10 11  1  0  0  0
 15 17  1  0  0  0
 16 18  1  0  0  0
M  END
> <minimizedAffinity>
-12.14087

$$$$
2YAY_DUP_A_1265


 35 36  0  0  0  0  0  0  0  0999 V2000
  -13.5790   31.2857   -4.7252 O   0  0  0  0  0  0  0  0  0  0  0  0
  -14.4921   31.7038   -6.0310 P   0  0  0  0  0  0  0  0  0  0  0  0
  -14.4176   30.5383   -6.9351 O   0  0  0  0  0  0  0  0  0  0  0  0
  -14.0039   33.0617   -6.4825 O   0  0  0  0  0  0  0  0  0  0  0  0
  -13.0705   33.0008   -6.7391 H   0  0  0  0  0  0  0  0  0  0  0  0
  -16.1007   31.9279   -5.6159 N   0  0  0  0  0  0  0  0  0  0  0  0
  -16.2959   31.2076   -4.9206 H   0  0  0  0  0  0  0  0  0  0  0  0
  -16.7920   33.3138   -5.0046 P   0  0  0  0  0  0  0  0  0  0  0  0
  -15.9496   34.6453   -5.1193 O   0  0  0  0  0  0  0  0  0  0  0  0
  -17.2808   33.0581   -3.5814 O   0  0  0  0  0  0  0  0  0  0  0  0
  -16.5183   32.9787   -2.9871 H   0  0  0  0  0  0  0  0  0  0  0  0
  -17.9825   33.4661   -6.0999 O   0  0  0  0  0  0  0  0  0  0  0  0
  -17.5729   33.5688   -7.7014 P   0  0  0  0  0  0  0  0  0  0  0  0
  -17.4109   32.1583   -8.2801 O   0  0  0  0  0  0  0  0  0  0  0  0
  -16.2073   34.2723   -7.9331 O   0  0  0  0  0  0  0  0  0  0  0  0
  -18.7542   34.3726   -8.1687 O   0  0  0  0  0  0  0  0  0  0  0  0
  -15.4914   33.7026   -7.6109 H   0  0  0  0  0  0  0  0  0  0  0  0
  -19.5706   33.8783   -7.9953 H   0  0  0  0  0  0  0  0  0  0  0  0
  -13.0160   32.3097   -3.8926 C   0  0  0  0  0  0  0  0  0  0  0  0
  -10.3929   30.5996   -2.2089 C   0  0  0  0  0  0  0  0  0  0  0  0
  -10.2939   31.9640   -1.6136 C   0  0  0  0  0  0  0  0  0  0  0  0
  -11.6436   32.6103   -1.7725 C   0  0  0  0  0  0  0  0  0  0  0  0
  -12.3508   32.7551   -0.5119 O   0  0  0  0  0  0  0  0  0  0  0  0
  -11.4155   30.7628   -3.2255 O   0  0  0  0  0  0  0  0  0  0  0  0
  -12.3489   31.6632   -2.6968 C   0  0  0  0  0  0  0  0  0  0  0  0
  -12.4548   31.8842   -0.0976 H   0  0  0  0  0  0  0  0  0  0  0  0
   -5.7743   28.3416   -4.1192 O   0  0  0  0  0  0  0  0  0  0  0  0
   -6.8534   28.9288   -3.6153 C   0  0  0  0  0  0  0  0  0  0  0  0
   -7.8896   29.1924   -4.5346 C   0  0  0  0  0  0  0  0  0  0  0  0
   -9.0555   29.7174   -4.0399 C   0  0  0  0  0  0  0  0  0  0  0  0
   -7.0049   29.1872   -2.2981 N   0  0  0  0  0  0  0  0  0  0  0  0
   -8.1437   29.7165   -1.8547 C   0  0  0  0  0  0  0  0  0  0  0  0
   -8.2665   30.0248   -0.6553 O   0  0  0  0  0  0  0  0  0  0  0  0
   -9.1546   30.0210   -2.7261 N   0  0  0  0  0  0  0  0  0  0  0  0
   -6.2760   28.9848   -1.6680 H   0  0  0  0  0  0  0  0  0  0  0  0
 27 28  2  0  0  0
 28 29  1  0  0  0
 28 31  1  0  0  0
 29 30  2  0  0  0
 30 34  1  0  0  0
 31 32  1  0  0  0
 32 33  2  0  0  0
 32 34  1  0  0  0
 34 20  1  0  0  0
 20 21  1  0  0  0
 20 24  1  0  0  0
 21 22  1  0  0  0
 22 23  1  0  0  0
 22 25  1  0  0  0
 24 25  1  0  0  0
 25 19  1  0  0  0
 19  1  1  0  0  0
  1  2  1  0  0  0
  2  3  2  0  0  0
  2  4  1  0  0  0
  2  6  1  0  0  0
  6  8  1  0  0  0
  8  9  2  0  0  0
  8 10  1  0  0  0
  8 12  1  0  0  0
 12 13  1  0  0  0
 13 14  2  0  0  0
 13 15  1  0  0  0
 13 16  1  0  0  0
 31 35  1  0  0  0
 23 26  1  0  0  0
  4  5  1  0  0  0
  6  7  1  0  0  0
 10 11  1  0  0  0
 15 17  1  0  0  0
 16 18  1  0  0  0
M  END
> <minimizedAffinity>
-12.08381

$$$$
2YAY_DUP_A_1265


 35 36  0  0  0  0  0  0  0  0999 V2000
  -14.7490   32.9368   -6.5067 O   0  0  0  0  0  0  0  0  0  0  0  0
  -16.3481   33.2987   -6.6667 P   0  0  0  0  0  0  0  0  0  0  0  0
  -17.0574   32.0602   -6.2870 O   0  0  0  0  0  0  0  0  0  0  0  0
  -16.5203   33.8934   -8.0461 O   0  0  0  0  0  0  0  0  0  0  0  0
  -16.2620   33.2397   -8.7146 H   0  0  0  0  0  0  0  0  0  0  0  0
  -16.8196   34.5055   -5.6030 N   0  0  0  0  0  0  0  0  0  0  0  0
  -17.2257   35.2321   -6.1926 H   0  0  0  0  0  0  0  0  0  0  0  0
  -17.8719   34.3540   -4.3217 P   0  0  0  0  0  0  0  0  0  0  0  0
  -17.9429   35.5619   -3.3061 O   0  0  0  0  0  0  0  0  0  0  0  0
  -17.6355   33.0196   -3.6192 O   0  0  0  0  0  0  0  0  0  0  0  0
  -16.7940   33.0522   -3.1379 H   0  0  0  0  0  0  0  0  0  0  0  0
  -19.2577   34.4247   -5.1670 O   0  0  0  0  0  0  0  0  0  0  0  0
  -19.5696   35.7852   -6.0585 P   0  0  0  0  0  0  0  0  0  0  0  0
  -18.9654   35.6295   -7.4590 O   0  0  0  0  0  0  0  0  0  0  0  0
  -18.9151   37.0622   -5.4634 O   0  0  0  0  0  0  0  0  0  0  0  0
  -21.0689   35.7675   -5.9503 O   0  0  0  0  0  0  0  0  0  0  0  0
  -17.9519   37.0094   -5.5653 H   0  0  0  0  0  0  0  0  0  0  0  0
  -21.4115   34.9473   -6.3387 H   0  0  0  0  0  0  0  0  0  0  0  0
  -14.3563   31.6449   -6.0215 C   0  0  0  0  0  0  0  0  0  0  0  0
  -12.3723   31.3868   -3.0825 C   0  0  0  0  0  0  0  0  0  0  0  0
  -12.5243   32.8651   -3.2146 C   0  0  0  0  0  0  0  0  0  0  0  0
  -13.7693   33.1069   -4.0248 C   0  0  0  0  0  0  0  0  0  0  0  0
  -14.8564   33.6595   -3.2355 O   0  0  0  0  0  0  0  0  0  0  0  0
  -13.0090   30.8866   -4.2867 O   0  0  0  0  0  0  0  0  0  0  0  0
  -14.0965   31.7342   -4.5324 C   0  0  0  0  0  0  0  0  0  0  0  0
  -15.0591   33.0604   -2.5001 H   0  0  0  0  0  0  0  0  0  0  0  0
   -7.3035   29.4308   -2.3344 O   0  0  0  0  0  0  0  0  0  0  0  0
   -8.5088   29.9656   -2.4899 C   0  0  0  0  0  0  0  0  0  0  0  0
   -9.1944   29.5930   -3.6644 C   0  0  0  0  0  0  0  0  0  0  0  0
  -10.4764   30.0529   -3.8212 C   0  0  0  0  0  0  0  0  0  0  0  0
   -9.0940   30.7484   -1.5573 N   0  0  0  0  0  0  0  0  0  0  0  0
  -10.3337   31.1944   -1.7516 C   0  0  0  0  0  0  0  0  0  0  0  0
  -10.8549   31.9739   -0.9335 O   0  0  0  0  0  0  0  0  0  0  0  0
  -11.0126   30.8836   -2.8990 N   0  0  0  0  0  0  0  0  0  0  0  0
   -8.6056   30.9883   -0.7368 H   0  0  0  0  0  0  0  0  0  0  0  0
 27 28  2  0  0  0
 28 29  1  0  0  0
 28 31  1  0  0  0
 29 30  2  0  0  0
 30 34  1  0  0  0
 31 32  1  0  0  0
 32 33  2  0  0  0
 32 34  1  0  0  0
 34 20  1  0  0  0
 20 21  1  0  0  0
 20 24  1  0  0  0
 21 22  1  0  0  0
 22 23  1  0  0  0
 22 25  1  0  0  0
 24 25  1  0  0  0
 25 19  1  0  0  0
 19  1  1  0  0  0
  1  2  1  0  0  0
  2  3  2  0  0  0
  2  4  1  0  0  0
  2  6  1  0  0  0
  6  8  1  0  0  0
  8  9  2  0  0  0
  8 10  1  0  0  0
  8 12  1  0  0  0
 12 13  1  0  0  0
 13 14  2  0  0  0
 13 15  1  0  0  0
 13 16  1  0  0  0
 31 35  1  0  0  0
 23 26  1  0  0  0
  4  5  1  0  0  0
  6  7  1  0  0  0
 10 11  1  0  0  0
 15 17  1  0  0  0
 16 18  1  0  0  0
M  END
> <minimizedAffinity>
-10.95629

$$$$
2YAY_DUP_A_1265


 35 36  0  0  0  0  0  0  0  0999 V2000
  -14.5310   31.9469   -4.2076 O   0  0  0  0  0  0  0  0  0  0  0  0
  -15.3477   32.6130   -5.4737 P   0  0  0  0  0  0  0  0  0  0  0  0
  -16.4448   31.6659   -5.7581 O   0  0  0  0  0  0  0  0  0  0  0  0
  -14.3162   32.9372   -6.5304 O   0  0  0  0  0  0  0  0  0  0  0  0
  -13.8770   32.1205   -6.8148 H   0  0  0  0  0  0  0  0  0  0  0  0
  -16.0360   34.0849   -5.0613 N   0  0  0  0  0  0  0  0  0  0  0  0
  -16.0442   34.6234   -5.9275 H   0  0  0  0  0  0  0  0  0  0  0  0
  -17.5381   34.3325   -4.3873 P   0  0  0  0  0  0  0  0  0  0  0  0
  -17.5828   35.0499   -2.9805 O   0  0  0  0  0  0  0  0  0  0  0  0
  -18.3259   33.0252   -4.3964 O   0  0  0  0  0  0  0  0  0  0  0  0
  -17.9501   32.4167   -3.7412 H   0  0  0  0  0  0  0  0  0  0  0  0
  -18.0743   35.4400   -5.4485 O   0  0  0  0  0  0  0  0  0  0  0  0
  -19.5396   36.1587   -5.1663 P   0  0  0  0  0  0  0  0  0  0  0  0
  -19.6424   37.4510   -5.9848 O   0  0  0  0  0  0  0  0  0  0  0  0
  -19.7277   36.5888   -3.6855 O   0  0  0  0  0  0  0  0  0  0  0  0
  -20.4187   35.0111   -5.5791 O   0  0  0  0  0  0  0  0  0  0  0  0
  -19.1340   37.3295   -3.4860 H   0  0  0  0  0  0  0  0  0  0  0  0
  -20.2518   34.7945   -6.5097 H   0  0  0  0  0  0  0  0  0  0  0  0
  -13.4030   31.0959   -4.4564 C   0  0  0  0  0  0  0  0  0  0  0  0
  -10.5822   30.2747   -2.4541 C   0  0  0  0  0  0  0  0  0  0  0  0
  -10.7443   31.7293   -2.1642 C   0  0  0  0  0  0  0  0  0  0  0  0
  -12.1798   32.0763   -2.4535 C   0  0  0  0  0  0  0  0  0  0  0  0
  -12.9454   32.3548   -1.2507 O   0  0  0  0  0  0  0  0  0  0  0  0
  -11.5811   30.0351   -3.4790 O   0  0  0  0  0  0  0  0  0  0  0  0
  -12.6756   30.8454   -3.1521 C   0  0  0  0  0  0  0  0  0  0  0  0
  -12.9100   31.5865   -0.6598 H   0  0  0  0  0  0  0  0  0  0  0  0
   -5.5816   28.5200   -3.8663 O   0  0  0  0  0  0  0  0  0  0  0  0
   -6.7619   28.9923   -3.4830 C   0  0  0  0  0  0  0  0  0  0  0  0
   -7.7443   29.0703   -4.4915 C   0  0  0  0  0  0  0  0  0  0  0  0
   -9.0021   29.4694   -4.1197 C   0  0  0  0  0  0  0  0  0  0  0  0
   -7.0507   29.3021   -2.2002 N   0  0  0  0  0  0  0  0  0  0  0  0
   -8.2781   29.7061   -1.8777 C   0  0  0  0  0  0  0  0  0  0  0  0
   -8.5351   30.0625   -0.7134 O   0  0  0  0  0  0  0  0  0  0  0  0
   -9.2444   29.8305   -2.8395 N   0  0  0  0  0  0  0  0  0  0  0  0
   -6.3563   29.2295   -1.5062 H   0  0  0  0  0  0  0  0  0  0  0  0
 27 28  2  0  0  0
 28 29  1  0  0  0
 28 31  1  0  0  0
 29 30  2  0  0  0
 30 34  1  0  0  0
 31 32  1  0  0  0
 32 33  2  0  0  0
 32 34  1  0  0  0
 34 20  1  0  0  0
 20 21  1  0  0  0
 20 24  1  0  0  0
 21 22  1  0  0  0
 22 23  1  0  0  0
 22 25  1  0  0  0
 24 25  1  0  0  0
 25 19  1  0  0  0
 19  1  1  0  0  0
  1  2  1  0  0  0
  2  3  2  0  0  0
  2  4  1  0  0  0
  2  6  1  0  0  0
  6  8  1  0  0  0
  8  9  2  0  0  0
  8 10  1  0  0  0
  8 12  1  0  0  0
 12 13  1  0  0  0
 13 14  2  0  0  0
 13 15  1  0  0  0
 13 16  1  0  0  0
 31 35  1  0  0  0
 23 26  1  0  0  0
  4  5  1  0  0  0
  6  7  1  0  0  0
 10 11  1  0  0  0
 15 17  1  0  0  0
 16 18  1  0  0  0
M  END
> <minimizedAffinity>
-10.73533

$$$$
2YAY_DUP_A_1265


 35 36  0  0  0  0  0  0  0  0999 V2000
  -14.0937   32.8685   -6.5894 O   0  0  0  0  0  0  0  0  0  0  0  0
  -15.1590   31.6122   -6.5705 P   0  0  0  0  0  0  0  0  0  0  0  0
  -15.5490   31.4664   -5.1535 O   0  0  0  0  0  0  0  0  0  0  0  0
  -14.4949   30.4717   -7.3082 O   0  0  0  0  0  0  0  0  0  0  0  0
  -13.6797   30.2194   -6.8469 H   0  0  0  0  0  0  0  0  0  0  0  0
  -16.5433   31.9606   -7.4494 N   0  0  0  0  0  0  0  0  0  0  0  0
  -17.2068   31.2283   -7.1966 H   0  0  0  0  0  0  0  0  0  0  0  0
  -17.4252   33.3722   -7.4081 P   0  0  0  0  0  0  0  0  0  0  0  0
  -18.6832   33.4593   -8.3597 O   0  0  0  0  0  0  0  0  0  0  0  0
  -16.4892   34.5664   -7.5741 O   0  0  0  0  0  0  0  0  0  0  0  0
  -16.1675   34.6003   -8.4886 H   0  0  0  0  0  0  0  0  0  0  0  0
  -18.0334   33.2066   -5.9104 O   0  0  0  0  0  0  0  0  0  0  0  0
  -17.3986   34.1341   -4.6940 P   0  0  0  0  0  0  0  0  0  0  0  0
  -18.2672   35.3817   -4.4947 O   0  0  0  0  0  0  0  0  0  0  0  0
  -15.9756   34.6661   -5.0180 O   0  0  0  0  0  0  0  0  0  0  0  0
  -17.4234   33.0975   -3.6054 O   0  0  0  0  0  0  0  0  0  0  0  0
  -16.0310   35.3280   -5.7250 H   0  0  0  0  0  0  0  0  0  0  0  0
  -18.3372   32.8095   -3.4539 H   0  0  0  0  0  0  0  0  0  0  0  0
  -12.8860   32.7898   -5.8187 C   0  0  0  0  0  0  0  0  0  0  0  0
  -12.0678   31.0642   -2.8198 C   0  0  0  0  0  0  0  0  0  0  0  0
  -12.3849   32.4284   -2.3056 C   0  0  0  0  0  0  0  0  0  0  0  0
  -13.2796   33.0832   -3.3231 C   0  0  0  0  0  0  0  0  0  0  0  0
  -14.6473   33.2332   -2.8570 O   0  0  0  0  0  0  0  0  0  0  0  0
  -12.1488   31.2333   -4.2588 O   0  0  0  0  0  0  0  0  0  0  0  0
  -13.1918   32.1399   -4.4856 C   0  0  0  0  0  0  0  0  0  0  0  0
  -15.0059   32.3633   -2.6215 H   0  0  0  0  0  0  0  0  0  0  0  0
   -7.2956   28.8575   -1.2594 O   0  0  0  0  0  0  0  0  0  0  0  0
   -8.4836   29.3372   -1.6081 C   0  0  0  0  0  0  0  0  0  0  0  0
   -8.6354   30.7342   -1.4912 C   0  0  0  0  0  0  0  0  0  0  0  0
   -9.8162   31.2803   -1.9237 C   0  0  0  0  0  0  0  0  0  0  0  0
   -9.4667   28.5678   -2.1244 N   0  0  0  0  0  0  0  0  0  0  0  0
  -10.6092   29.1292   -2.5159 C   0  0  0  0  0  0  0  0  0  0  0  0
  -11.5473   28.4216   -2.9254 O   0  0  0  0  0  0  0  0  0  0  0  0
  -10.8039   30.4774   -2.3796 N   0  0  0  0  0  0  0  0  0  0  0  0
   -9.3390   27.5955   -2.2110 H   0  0  0  0  0  0  0  0  0  0  0  0
 27 28  2  0  0  0
 28 29  1  0  0  0
 28 31  1  0  0  0
 29 30  2  0  0  0
 30 34  1  0  0  0
 31 32  1  0  0  0
 32 33  2  0  0  0
 32 34  1  0  0  0
 34 20  1  0  0  0
 20 21  1  0  0  0
 20 24  1  0  0  0
 21 22  1  0  0  0
 22 23  1  0  0  0
 22 25  1  0  0  0
 24 25  1  0  0  0
 25 19  1  0  0  0
 19  1  1  0  0  0
  1  2  1  0  0  0
  2  3  2  0  0  0
  2  4  1  0  0  0
  2  6  1  0  0  0
  6  8  1  0  0  0
  8  9  2  0  0  0
  8 10  1  0  0  0
  8 12  1  0  0  0
 12 13  1  0  0  0
 13 14  2  0  0  0
 13 15  1  0  0  0
 13 16  1  0  0  0
 31 35  1  0  0  0
 23 26  1  0  0  0
  4  5  1  0  0  0
  6  7  1  0  0  0
 10 11  1  0  0  0
 15 17  1  0  0  0
 16 18  1  0  0  0
M  END
> <minimizedAffinity>
-9.98766

$$$$
2YAY_DUP_A_1265


 35 36  0  0  0  0  0  0  0  0999 V2000
  -12.9866   32.6030   -4.4222 O   0  0  0  0  0  0  0  0  0  0  0  0
  -12.6572   31.3366   -3.4216 P   0  0  0  0  0  0  0  0  0  0  0  0
  -13.4357   30.2074   -3.9696 O   0  0  0  0  0  0  0  0  0  0  0  0
  -12.8979   31.8262   -2.0116 O   0  0  0  0  0  0  0  0  0  0  0  0
  -13.8265   32.0895   -1.9148 H   0  0  0  0  0  0  0  0  0  0  0  0
  -11.0360   30.9130   -3.4718 N   0  0  0  0  0  0  0  0  0  0  0  0
  -10.5332   31.7998   -3.5055 H   0  0  0  0  0  0  0  0  0  0  0  0
  -10.2083   29.9919   -2.3588 P   0  0  0  0  0  0  0  0  0  0  0  0
  -10.7336   28.5226   -2.1121 O   0  0  0  0  0  0  0  0  0  0  0  0
  -10.0510   30.7769   -1.0592 O   0  0  0  0  0  0  0  0  0  0  0  0
  -10.9103   30.8401   -0.6137 H   0  0  0  0  0  0  0  0  0  0  0  0
   -8.8300   29.8166   -3.2014 O   0  0  0  0  0  0  0  0  0  0  0  0
   -7.4088   29.6599   -2.3657 P   0  0  0  0  0  0  0  0  0  0  0  0
   -6.9321   31.0414   -1.9022 O   0  0  0  0  0  0  0  0  0  0  0  0
   -6.2540   29.0924   -3.2361 O   0  0  0  0  0  0  0  0  0  0  0  0
   -7.8921   28.7081   -1.3070 O   0  0  0  0  0  0  0  0  0  0  0  0
   -5.9913   29.7535   -3.8955 H   0  0  0  0  0  0  0  0  0  0  0  0
   -8.6094   29.1228   -0.8026 H   0  0  0  0  0  0  0  0  0  0  0  0
  -14.0042   33.5486   -4.0627 C   0  0  0  0  0  0  0  0  0  0  0  0
  -17.3845   33.6824   -5.1563 C   0  0  0  0  0  0  0  0  0  0  0  0
  -16.7273   32.9759   -6.2943 C   0  0  0  0  0  0  0  0  0  0  0  0
  -15.4742   32.3430   -5.7522 C   0  0  0  0  0  0  0  0  0  0  0  0
  -15.5622   30.8950   -5.6756 O   0  0  0  0  0  0  0  0  0  0  0  0
  -16.2653   34.0289   -4.3002 O   0  0  0  0  0  0  0  0  0  0  0  0
  -15.3614   32.9631   -4.3914 C   0  0  0  0  0  0  0  0  0  0  0  0
  -16.3178   30.6459   -5.1207 H   0  0  0  0  0  0  0  0  0  0  0  0
  -20.4610   38.0392   -6.4339 O   0  0  0  0  0  0  0  0  0  0  0  0
  -19.7535   36.9775   -6.0659 C   0  0  0  0  0  0  0  0  0  0  0  0
  -19.4020   36.0895   -7.1033 C   0  0  0  0  0  0  0  0  0  0  0  0
  -18.5976   35.0271   -6.7809 C   0  0  0  0  0  0  0  0  0  0  0  0
  -19.3153   36.7854   -4.8026 N   0  0  0  0  0  0  0  0  0  0  0  0
  -18.5519   35.7311   -4.5206 C   0  0  0  0  0  0  0  0  0  0  0  0
  -18.2029   35.5057   -3.3476 O   0  0  0  0  0  0  0  0  0  0  0  0
  -18.2250   34.8284   -5.4965 N   0  0  0  0  0  0  0  0  0  0  0  0
  -19.5594   37.4224   -4.0929 H   0  0  0  0  0  0  0  0  0  0  0  0
 27 28  2  0  0  0
 28 29  1  0  0  0
 28 31  1  0  0  0
 29 30  2  0  0  0
 30 34  1  0  0  0
 31 32  1  0  0  0
 32 33  2  0  0  0
 32 34  1  0  0  0
 34 20  1  0  0  0
 20 21  1  0  0  0
 20 24  1  0  0  0
 21 22  1  0  0  0
 22 23  1  0  0  0
 22 25  1  0  0  0
 24 25  1  0  0  0
 25 19  1  0  0  0
 19  1  1  0  0  0
  1  2  1  0  0  0
  2  3  2  0  0  0
  2  4  1  0  0  0
  2  6  1  0  0  0
  6  8  1  0  0  0
  8  9  2  0  0  0
  8 10  1  0  0  0
  8 12  1  0  0  0
 12 13  1  0  0  0
 13 14  2  0  0  0
 13 15  1  0  0  0
 13 16  1  0  0  0
 31 35  1  0  0  0
 23 26  1  0  0  0
  4  5  1  0  0  0
  6  7  1  0  0  0
 10 11  1  0  0  0
 15 17  1  0  0  0
 16 18  1  0  0  0
M  END
> <minimizedAffinity>
-9.72551

$$$$
2YAY_DUP_A_1265


 35 36  0  0  0  0  0  0  0  0999 V2000
  -15.0546   32.6774   -6.6050 O   0  0  0  0  0  0  0  0  0  0  0  0
  -16.6854   32.7981   -6.4058 P   0  0  0  0  0  0  0  0  0  0  0  0
  -16.8999   34.1452   -5.8395 O   0  0  0  0  0  0  0  0  0  0  0  0
  -17.1202   31.5649   -5.6468 O   0  0  0  0  0  0  0  0  0  0  0  0
  -16.6830   31.5471   -4.7811 H   0  0  0  0  0  0  0  0  0  0  0  0
  -17.4957   32.7237   -7.8714 N   0  0  0  0  0  0  0  0  0  0  0  0
  -18.4852   32.7645   -7.6274 H   0  0  0  0  0  0  0  0  0  0  0  0
  -17.3279   33.7639   -9.1607 P   0  0  0  0  0  0  0  0  0  0  0  0
  -17.1959   33.1129  -10.5940 O   0  0  0  0  0  0  0  0  0  0  0  0
  -16.2094   34.7617   -8.8722 O   0  0  0  0  0  0  0  0  0  0  0  0
  -15.3529   34.3083   -8.9142 H   0  0  0  0  0  0  0  0  0  0  0  0
  -18.8198   34.4062   -9.1193 O   0  0  0  0  0  0  0  0  0  0  0  0
  -18.9710   36.0338   -8.8528 P   0  0  0  0  0  0  0  0  0  0  0  0
  -20.3904   36.4831   -9.2187 O   0  0  0  0  0  0  0  0  0  0  0  0
  -18.0236   36.8837   -9.7435 O   0  0  0  0  0  0  0  0  0  0  0  0
  -18.6008   36.0428   -7.3957 O   0  0  0  0  0  0  0  0  0  0  0  0
  -18.3175   36.8348  -10.6666 H   0  0  0  0  0  0  0  0  0  0  0  0
  -19.2293   35.4958   -6.8990 H   0  0  0  0  0  0  0  0  0  0  0  0
  -14.3535   31.5459   -6.0694 C   0  0  0  0  0  0  0  0  0  0  0  0
  -12.4668   31.5222   -3.0561 C   0  0  0  0  0  0  0  0  0  0  0  0
  -12.6108   32.9854   -3.3100 C   0  0  0  0  0  0  0  0  0  0  0  0
  -13.8282   33.1618   -4.1769 C   0  0  0  0  0  0  0  0  0  0  0  0
  -14.9391   33.7752   -3.4699 O   0  0  0  0  0  0  0  0  0  0  0  0
  -13.0652   30.9279   -4.2370 O   0  0  0  0  0  0  0  0  0  0  0  0
  -14.1420   31.7532   -4.5844 C   0  0  0  0  0  0  0  0  0  0  0  0
  -15.1670   33.2364   -2.6962 H   0  0  0  0  0  0  0  0  0  0  0  0
   -7.4301   29.6295   -1.9939 O   0  0  0  0  0  0  0  0  0  0  0  0
   -8.6293   30.1500   -2.2264 C   0  0  0  0  0  0  0  0  0  0  0  0
   -9.2536   29.7338   -3.4203 C   0  0  0  0  0  0  0  0  0  0  0  0
  -10.5289   30.1788   -3.6555 C   0  0  0  0  0  0  0  0  0  0  0  0
   -9.2645   30.9586   -1.3504 N   0  0  0  0  0  0  0  0  0  0  0  0
  -10.4957   31.3888   -1.6204 C   0  0  0  0  0  0  0  0  0  0  0  0
  -11.0613   32.1910   -0.8555 O   0  0  0  0  0  0  0  0  0  0  0  0
  -11.1150   31.0354   -2.7891 N   0  0  0  0  0  0  0  0  0  0  0  0
   -8.8189   31.2291   -0.5152 H   0  0  0  0  0  0  0  0  0  0  0  0
 27 28  2  0  0  0
 28 29  1  0  0  0
 28 31  1  0  0  0
 29 30  2  0  0  0
 30 34  1  0  0  0
 31 32  1  0  0  0
 32 33  2  0  0  0
 32 34  1  0  0  0
 34 20  1  0  0  0
 20 21  1  0  0  0
 20 24  1  0  0  0
 21 22  1  0  0  0
 22 23  1  0  0  0
 22 25  1  0  0  0
 24 25  1  0  0  0
 25 19  1  0  0  0
 19  1  1  0  0  0
  1  2  1  0  0  0
  2  3  2  0  0  0
  2  4  1  0  0  0
  2  6  1  0  0  0
  6  8  1  0  0  0
  8  9  2  0  0  0
  8 10  1  0  0  0
  8 12  1  0  0  0
 12 13  1  0  0  0
 13 14  2  0  0  0
 13 15  1  0  0  0
 13 16  1  0  0  0
 31 35  1  0  0  0
 23 26  1  0  0  0
  4  5  1  0  0  0
  6  7  1  0  0  0
 10 11  1  0  0  0
 15 17  1  0  0  0
 16 18  1  0  0  0
M  END
> <minimizedAffinity>
-9.43263

$$$$
2YAY_DUP_A_1265


 35 36  0  0  0  0  0  0  0  0999 V2000
  -15.1276   32.6409   -6.8795 O   0  0  0  0  0  0  0  0  0  0  0  0
  -16.7459   32.9345   -6.9729 P   0  0  0  0  0  0  0  0  0  0  0  0
  -16.9330   34.2426   -6.3133 O   0  0  0  0  0  0  0  0  0  0  0  0
  -17.4400   31.6992   -6.4455 O   0  0  0  0  0  0  0  0  0  0  0  0
  -17.1843   31.5545   -5.5211 H   0  0  0  0  0  0  0  0  0  0  0  0
  -17.2575   33.0845   -8.5622 N   0  0  0  0  0  0  0  0  0  0  0  0
  -17.4916   32.1356   -8.8540 H   0  0  0  0  0  0  0  0  0  0  0  0
  -18.5086   34.0280   -9.1251 P   0  0  0  0  0  0  0  0  0  0  0  0
  -19.6532   34.3878   -8.0974 O   0  0  0  0  0  0  0  0  0  0  0  0
  -19.0576   33.4327  -10.4189 O   0  0  0  0  0  0  0  0  0  0  0  0
  -19.5437   32.6175  -10.2191 H   0  0  0  0  0  0  0  0  0  0  0  0
  -17.6699   35.4047   -9.3292 O   0  0  0  0  0  0  0  0  0  0  0  0
  -16.2876   35.3587  -10.2402 P   0  0  0  0  0  0  0  0  0  0  0  0
  -16.3964   34.2372  -11.2799 O   0  0  0  0  0  0  0  0  0  0  0  0
  -15.0215   35.0277   -9.4031 O   0  0  0  0  0  0  0  0  0  0  0  0
  -16.3241   36.7733  -10.7479 O   0  0  0  0  0  0  0  0  0  0  0  0
  -15.0612   34.1046   -9.1080 H   0  0  0  0  0  0  0  0  0  0  0  0
  -17.1363   36.9122  -11.2597 H   0  0  0  0  0  0  0  0  0  0  0  0
  -14.6499   31.5184   -6.1244 C   0  0  0  0  0  0  0  0  0  0  0  0
  -12.6704   31.7706   -3.1819 C   0  0  0  0  0  0  0  0  0  0  0  0
  -12.6039   33.1643   -3.7102 C   0  0  0  0  0  0  0  0  0  0  0  0
  -13.8145   33.3604   -4.5824 C   0  0  0  0  0  0  0  0  0  0  0  0
  -14.7923   34.2598   -3.9949 O   0  0  0  0  0  0  0  0  0  0  0  0
  -13.3971   31.0645   -4.2206 O   0  0  0  0  0  0  0  0  0  0  0  0
  -14.3513   31.9659   -4.7089 C   0  0  0  0  0  0  0  0  0  0  0  0
  -15.0675   33.9177   -3.1299 H   0  0  0  0  0  0  0  0  0  0  0  0
   -7.9378   29.3481   -1.8357 O   0  0  0  0  0  0  0  0  0  0  0  0
   -9.0561   29.9955   -2.1412 C   0  0  0  0  0  0  0  0  0  0  0  0
   -9.7057   29.5688   -3.3177 C   0  0  0  0  0  0  0  0  0  0  0  0
  -10.9090   30.1510   -3.6223 C   0  0  0  0  0  0  0  0  0  0  0  0
   -9.5992   30.9440   -1.3473 N   0  0  0  0  0  0  0  0  0  0  0  0
  -10.7600   31.5032   -1.6842 C   0  0  0  0  0  0  0  0  0  0  0  0
  -11.2328   32.4278   -0.9985 O   0  0  0  0  0  0  0  0  0  0  0  0
  -11.3972   31.1399   -2.8401 N   0  0  0  0  0  0  0  0  0  0  0  0
   -9.1385   31.2208   -0.5225 H   0  0  0  0  0  0  0  0  0  0  0  0
 27 28  2  0  0  0
 28 29  1  0  0  0
 28 31  1  0  0  0
 29 30  2  0  0  0
 30 34  1  0  0  0
 31 32  1  0  0  0
 32 33  2  0  0  0
 32 34  1  0  0  0
 34 20  1  0  0  0
 20 21  1  0  0  0
 20 24  1  0  0  0
 21 22  1  0  0  0
 22 23  1  0  0  0
 22 25  1  0  0  0
 24 25  1  0  0  0
 25 19  1  0  0  0
 19  1  1  0  0  0
  1  2  1  0  0  0
  2  3  2  0  0  0
  2  4  1  0  0  0
  2  6  1  0  0  0
  6  8  1  0  0  0
  8  9  2  0  0  0
  8 10  1  0  0  0
  8 12  1  0  0  0
 12 13  1  0  0  0
 13 14  2  0  0  0
 13 15  1  0  0  0
 13 16  1  0  0  0
 31 35  1  0  0  0
 23 26  1  0  0  0
  4  5  1  0  0  0
  6  7  1  0  0  0
 10 11  1  0  0  0
 15 17  1  0  0  0
 16 18  1  0  0  0
M  END
> <minimizedAffinity>
-9.39167

$$$$
