1O5E_132_H_256


 32 35  0  0  0  0  0  0  0  0999 V2000
   16.2709   -6.7955   25.1866 C   0  0  0  0  0  0  0  0  0  0  0  0
   15.0085   -6.0839   25.0204 C   0  0  0  0  0  0  0  0  0  0  0  0
   14.6684   -5.0513   25.9128 C   0  0  0  0  0  0  0  0  0  0  0  0
   15.5842   -4.7911   26.9213 C   0  0  0  0  0  0  0  0  0  0  0  0
   16.7398   -5.4388   27.0899 C   0  0  0  0  0  0  0  0  0  0  0  0
   17.0968   -6.4229   26.2411 C   0  0  0  0  0  0  0  0  0  0  0  0
   15.5277   -3.9205   27.9103 N   0  0  0  0  0  0  0  0  0  0  0  0
   17.3579   -4.9561   28.1606 C   0  0  0  0  0  0  0  0  0  0  0  0
   16.5931   -3.9660   28.7192 C   0  0  0  0  0  0  0  0  0  0  0  0
   13.7495   -6.4801   23.8048 Cl  0  0  0  0  0  0  0  0  0  0  0  0
   14.7759   -3.2984   28.0408 H   0  0  0  0  0  0  0  0  0  0  0  0
   16.7661   -3.1739   29.8801 C   0  0  0  0  0  0  0  0  0  0  0  0
   17.4814   -3.7172   30.9649 C   0  0  0  0  0  0  0  0  0  0  0  0
   17.6682   -3.0351   32.1376 C   0  0  0  0  0  0  0  0  0  0  0  0
   17.1394   -1.7612   32.2675 C   0  0  0  0  0  0  0  0  0  0  0  0
   16.4149   -1.1352   31.2344 C   0  0  0  0  0  0  0  0  0  0  0  0
   16.2415   -1.8787   30.0483 C   0  0  0  0  0  0  0  0  0  0  0  0
   15.5108   -1.3580   29.0015 O   0  0  0  0  0  0  0  0  0  0  0  0
   15.3983   -1.8555   28.2155 H   0  0  0  0  0  0  0  0  0  0  0  0
   15.9385    0.1832   31.4320 C   0  0  0  0  0  0  0  0  0  0  0  0
   14.6599    0.4388   31.9489 C   0  0  0  0  0  0  0  0  0  0  0  0
   14.1847    1.7466   32.1879 C   0  0  0  0  0  0  0  0  0  0  0  0
   14.9903    2.8171   31.9141 C   0  0  0  0  0  0  0  0  0  0  0  0
   16.2600    2.5918   31.3993 C   0  0  0  0  0  0  0  0  0  0  0  0
   16.7250    1.3055   31.1641 C   0  0  0  0  0  0  0  0  0  0  0  0
   16.7275   -7.8340   24.3838 C   0  0  0  0  0  0  0  0  0  0  0  0
   15.9205   -8.5634   23.6839 N   0  0  0  0  0  0  0  0  0  0  0  0
   17.9875   -8.0694   24.3439 N   0  0  0  0  0  0  0  0  0  0  0  0
   14.9519   -8.3890   23.7091 H   0  0  0  0  0  0  0  0  0  0  0  0
   16.2750   -9.2930   23.1259 H   0  0  0  0  0  0  0  0  0  0  0  0
   18.6082   -7.5187   24.8738 H   0  0  0  0  0  0  0  0  0  0  0  0
   18.3341   -8.8009   23.7835 H   0  0  0  0  0  0  0  0  0  0  0  0
  1  2  1  0  0  0
  1  6  2  0  0  0
  1 26  1  0  0  0
  2  3  2  0  0  0
  2 10  1  0  0  0
  3  4  1  0  0  0
  4  5  2  0  0  0
  4  7  1  0  0  0
  5  6  1  0  0  0
  5  8  1  0  0  0
 26 27  1  0  0  0
 26 28  2  0  0  0
  7  9  1  0  0  0
  8  9  2  0  0  0
  9 12  1  0  0  0
 12 13  2  0  0  0
 12 17  1  0  0  0
 13 14  1  0  0  0
 14 15  2  0  0  0
 15 16  1  0  0  0
 16 17  2  0  0  0
 16 20  1  0  0  0
 17 18  1  0  0  0
 20 21  2  0  0  0
 20 25  1  0  0  0
 21 22  1  0  0  0
 22 23  2  0  0  0
 23 24  1  0  0  0
 24 25  2  0  0  0
 27 29  1  0  0  0
 27 30  1  0  0  0
 28 31  1  0  0  0
 28 32  1  0  0  0
  7 11  1  0  0  0
 18 19  1  0  0  0
M  CHG 1  28   1
M  END
> <minimizedAffinity>
-10.13204

$$$$
1O5E_132_H_256


 32 35  0  0  0  0  0  0  0  0999 V2000
   16.3515   -6.7819   25.3596 C   0  0  0  0  0  0  0  0  0  0  0  0
   15.1427   -5.9996   25.1262 C   0  0  0  0  0  0  0  0  0  0  0  0
   14.8270   -4.9325   25.9863 C   0  0  0  0  0  0  0  0  0  0  0  0
   15.7121   -4.7088   27.0305 C   0  0  0  0  0  0  0  0  0  0  0  0
   16.8181   -5.4210   27.2605 C   0  0  0  0  0  0  0  0  0  0  0  0
   17.1517   -6.4399   26.4438 C   0  0  0  0  0  0  0  0  0  0  0  0
   15.6651   -3.8185   28.0022 N   0  0  0  0  0  0  0  0  0  0  0  0
   17.4169   -4.9564   28.3500 C   0  0  0  0  0  0  0  0  0  0  0  0
   16.6896   -3.9125   28.8584 C   0  0  0  0  0  0  0  0  0  0  0  0
   13.9162   -6.3423   23.8621 Cl  0  0  0  0  0  0  0  0  0  0  0  0
   14.9472   -3.1505   28.0893 H   0  0  0  0  0  0  0  0  0  0  0  0
   16.8594   -3.1111   30.0133 C   0  0  0  0  0  0  0  0  0  0  0  0
   17.7608   -3.5431   31.0056 C   0  0  0  0  0  0  0  0  0  0  0  0
   17.9624   -2.8482   32.1682 C   0  0  0  0  0  0  0  0  0  0  0  0
   17.2592   -1.6737   32.3816 C   0  0  0  0  0  0  0  0  0  0  0  0
   16.3414   -1.1618   31.4436 C   0  0  0  0  0  0  0  0  0  0  0  0
   16.1611   -1.9152   30.2649 C   0  0  0  0  0  0  0  0  0  0  0  0
   15.2521   -1.5082   29.3115 O   0  0  0  0  0  0  0  0  0  0  0  0
   15.1357   -2.0118   28.5299 H   0  0  0  0  0  0  0  0  0  0  0  0
   15.6900    0.0643   31.7200 C   0  0  0  0  0  0  0  0  0  0  0  0
   16.2082    1.2927   31.2844 C   0  0  0  0  0  0  0  0  0  0  0  0
   15.5512    2.5202   31.5185 C   0  0  0  0  0  0  0  0  0  0  0  0
   14.3606    2.5301   32.1910 C   0  0  0  0  0  0  0  0  0  0  0  0
   13.8267    1.3278   32.6354 C   0  0  0  0  0  0  0  0  0  0  0  0
   14.4746    0.1222   32.4052 C   0  0  0  0  0  0  0  0  0  0  0  0
   16.7791   -7.8602   24.5943 C   0  0  0  0  0  0  0  0  0  0  0  0
   18.0252   -8.0354   24.2947 N   0  0  0  0  0  0  0  0  0  0  0  0
   15.9047   -8.6999   24.1757 N   0  0  0  0  0  0  0  0  0  0  0  0
   18.7025   -7.3953   24.6122 H   0  0  0  0  0  0  0  0  0  0  0  0
   18.2963   -8.8088   23.7492 H   0  0  0  0  0  0  0  0  0  0  0  0
   14.9543   -8.5736   24.3994 H   0  0  0  0  0  0  0  0  0  0  0  0
   16.1838   -9.4708   23.6307 H   0  0  0  0  0  0  0  0  0  0  0  0
  1  2  1  0  0  0
  1  6  2  0  0  0
  1 26  1  0  0  0
  2  3  2  0  0  0
  2 10  1  0  0  0
  3  4  1  0  0  0
  4  5  2  0  0  0
  4  7  1  0  0  0
  5  6  1  0  0  0
  5  8  1  0  0  0
 26 27  1  0  0  0
 26 28  2  0  0  0
  7  9  1  0  0  0
  8  9  2  0  0  0
  9 12  1  0  0  0
 12 13  2  0  0  0
 12 17  1  0  0  0
 13 14  1  0  0  0
 14 15  2  0  0  0
 15 16  1  0  0  0
 16 17  2  0  0  0
 16 20  1  0  0  0
 17 18  1  0  0  0
 20 21  2  0  0  0
 20 25  1  0  0  0
 21 22  1  0  0  0
 22 23  2  0  0  0
 23 24  1  0  0  0
 24 25  2  0  0  0
 27 29  1  0  0  0
 27 30  1  0  0  0
 28 31  1  0  0  0
 28 32  1  0  0  0
  7 11  1  0  0  0
 18 19  1  0  0  0
M  CHG 1  28   1
M  END
> <minimizedAffinity>
-9.95878

$$$$
1O5E_132_H_256


 32 35  0  0  0  0  0  0  0  0999 V2000
   14.5241    0.1671   32.6709 C   0  0  0  0  0  0  0  0  0  0  0  0
   14.5283    0.9550   31.4433 C   0  0  0  0  0  0  0  0  0  0  0  0
   14.9894    0.3773   30.2467 C   0  0  0  0  0  0  0  0  0  0  0  0
   15.4304   -0.9348   30.3336 C   0  0  0  0  0  0  0  0  0  0  0  0
   15.4391   -1.6655   31.4514 C   0  0  0  0  0  0  0  0  0  0  0  0
   14.9897   -1.1415   32.6088 C   0  0  0  0  0  0  0  0  0  0  0  0
   15.9420   -1.7179   29.4039 N   0  0  0  0  0  0  0  0  0  0  0  0
   15.9454   -2.8632   31.1852 C   0  0  0  0  0  0  0  0  0  0  0  0
   16.2846   -2.9289   29.8594 C   0  0  0  0  0  0  0  0  0  0  0  0
   14.0827    2.6891   31.3251 Cl  0  0  0  0  0  0  0  0  0  0  0  0
   16.0601   -1.4391   28.4672 H   0  0  0  0  0  0  0  0  0  0  0  0
   16.8955   -3.9451   29.0853 C   0  0  0  0  0  0  0  0  0  0  0  0
   18.1691   -4.4087   29.4681 C   0  0  0  0  0  0  0  0  0  0  0  0
   18.8471   -5.3644   28.7593 C   0  0  0  0  0  0  0  0  0  0  0  0
   18.2628   -5.9020   27.6239 C   0  0  0  0  0  0  0  0  0  0  0  0
   16.9908   -5.5039   27.1683 C   0  0  0  0  0  0  0  0  0  0  0  0
   16.3337   -4.5120   27.9259 C   0  0  0  0  0  0  0  0  0  0  0  0
   15.1026   -4.0350   27.5286 O   0  0  0  0  0  0  0  0  0  0  0  0
   14.6699   -3.3760   28.0350 H   0  0  0  0  0  0  0  0  0  0  0  0
   16.4472   -6.1281   26.0199 C   0  0  0  0  0  0  0  0  0  0  0  0
   15.3866   -5.5589   25.2998 C   0  0  0  0  0  0  0  0  0  0  0  0
   14.8589   -6.1492   24.1309 C   0  0  0  0  0  0  0  0  0  0  0  0
   15.3929   -7.3193   23.6664 C   0  0  0  0  0  0  0  0  0  0  0  0
   16.4421   -7.9051   24.3621 C   0  0  0  0  0  0  0  0  0  0  0  0
   16.9588   -7.3239   25.5116 C   0  0  0  0  0  0  0  0  0  0  0  0
   14.1017    0.6121   33.9179 C   0  0  0  0  0  0  0  0  0  0  0  0
   12.8586    0.8675   34.1683 N   0  0  0  0  0  0  0  0  0  0  0  0
   14.9780    0.7730   34.8404 N   0  0  0  0  0  0  0  0  0  0  0  0
   12.1799    0.7465   33.4655 H   0  0  0  0  0  0  0  0  0  0  0  0
   12.5912    1.1830   35.0617 H   0  0  0  0  0  0  0  0  0  0  0  0
   15.9261    0.5807   34.6577 H   0  0  0  0  0  0  0  0  0  0  0  0
   14.7025    1.0888   35.7313 H   0  0  0  0  0  0  0  0  0  0  0  0
  1  2  1  0  0  0
  1  6  2  0  0  0
  1 26  1  0  0  0
  2  3  2  0  0  0
  2 10  1  0  0  0
  3  4  1  0  0  0
  4  5  2  0  0  0
  4  7  1  0  0  0
  5  6  1  0  0  0
  5  8  1  0  0  0
 26 27  1  0  0  0
 26 28  2  0  0  0
  7  9  1  0  0  0
  8  9  2  0  0  0
  9 12  1  0  0  0
 12 13  2  0  0  0
 12 17  1  0  0  0
 13 14  1  0  0  0
 14 15  2  0  0  0
 15 16  1  0  0  0
 16 17  2  0  0  0
 16 20  1  0  0  0
 17 18  1  0  0  0
 20 21  2  0  0  0
 20 25  1  0  0  0
 21 22  1  0  0  0
 22 23  2  0  0  0
 23 24  1  0  0  0
 24 25  2  0  0  0
 27 29  1  0  0  0
 27 30  1  0  0  0
 28 31  1  0  0  0
 28 32  1  0  0  0
  7 11  1  0  0  0
 18 19  1  0  0  0
M  CHG 1  28   1
M  END
> <minimizedAffinity>
-9.37386

$$$$
1O5E_132_H_256


 32 35  0  0  0  0  0  0  0  0999 V2000
   16.1689   -7.0091   25.1897 C   0  0  0  0  0  0  0  0  0  0  0  0
   15.0185   -6.2503   24.7119 C   0  0  0  0  0  0  0  0  0  0  0  0
   14.4146   -5.2980   25.5526 C   0  0  0  0  0  0  0  0  0  0  0  0
   14.9706   -5.1602   26.8157 C   0  0  0  0  0  0  0  0  0  0  0  0
   16.0186   -5.8529   27.2690 C   0  0  0  0  0  0  0  0  0  0  0  0
   16.6250   -6.7614   26.4795 C   0  0  0  0  0  0  0  0  0  0  0  0
   14.6067   -4.3863   27.8195 N   0  0  0  0  0  0  0  0  0  0  0  0
   16.2716   -5.4913   28.5207 C   0  0  0  0  0  0  0  0  0  0  0  0
   15.3679   -4.5379   28.9099 C   0  0  0  0  0  0  0  0  0  0  0  0
   14.2011   -6.4942   23.1333 Cl  0  0  0  0  0  0  0  0  0  0  0  0
   13.8496   -3.7588   27.7716 H   0  0  0  0  0  0  0  0  0  0  0  0
   15.1689   -3.8647   30.1397 C   0  0  0  0  0  0  0  0  0  0  0  0
   15.7117   -2.5745   30.2961 C   0  0  0  0  0  0  0  0  0  0  0  0
   15.5961   -1.8648   31.4615 C   0  0  0  0  0  0  0  0  0  0  0  0
   14.9183   -2.4296   32.5298 C   0  0  0  0  0  0  0  0  0  0  0  0
   14.3382   -3.7115   32.4635 C   0  0  0  0  0  0  0  0  0  0  0  0
   14.4891   -4.4077   31.2461 C   0  0  0  0  0  0  0  0  0  0  0  0
   13.9873   -5.6844   31.1081 O   0  0  0  0  0  0  0  0  0  0  0  0
   14.0899   -6.1431   30.2975 H   0  0  0  0  0  0  0  0  0  0  0  0
   13.6302   -4.2029   33.5866 C   0  0  0  0  0  0  0  0  0  0  0  0
   14.2797   -4.8602   34.6418 C   0  0  0  0  0  0  0  0  0  0  0  0
   13.5938   -5.3219   35.7861 C   0  0  0  0  0  0  0  0  0  0  0  0
   12.2443   -5.1256   35.8882 C   0  0  0  0  0  0  0  0  0  0  0  0
   11.5766   -4.4796   34.8563 C   0  0  0  0  0  0  0  0  0  0  0  0
   12.2525   -4.0275   33.7316 C   0  0  0  0  0  0  0  0  0  0  0  0
   16.8558   -7.9790   24.4692 C   0  0  0  0  0  0  0  0  0  0  0  0
   18.1390   -7.9344   24.3125 N   0  0  0  0  0  0  0  0  0  0  0  0
   16.1886   -8.9415   23.9465 N   0  0  0  0  0  0  0  0  0  0  0  0
   18.6583   -7.1988   24.7106 H   0  0  0  0  0  0  0  0  0  0  0  0
   18.5964   -8.6360   23.7951 H   0  0  0  0  0  0  0  0  0  0  0  0
   15.2117   -8.9825   24.0612 H   0  0  0  0  0  0  0  0  0  0  0  0
   16.6534   -9.6393   23.4304 H   0  0  0  0  0  0  0  0  0  0  0  0
  1  2  1  0  0  0
  1  6  2  0  0  0
  1 26  1  0  0  0
  2  3  2  0  0  0
  2 10  1  0  0  0
  3  4  1  0  0  0
  4  5  2  0  0  0
  4  7  1  0  0  0
  5  6  1  0  0  0
  5  8  1  0  0  0
 26 27  1  0  0  0
 26 28  2  0  0  0
  7  9  1  0  0  0
  8  9  2  0  0  0
  9 12  1  0  0  0
 12 13  2  0  0  0
 12 17  1  0  0  0
 13 14  1  0  0  0
 14 15  2  0  0  0
 15 16  1  0  0  0
 16 17  2  0  0  0
 16 20  1  0  0  0
 17 18  1  0  0  0
 20 21  2  0  0  0
 20 25  1  0  0  0
 21 22  1  0  0  0
 22 23  2  0  0  0
 23 24  1  0  0  0
 24 25  2  0  0  0
 27 29  1  0  0  0
 27 30  1  0  0  0
 28 31  1  0  0  0
 28 32  1  0  0  0
  7 11  1  0  0  0
 18 19  1  0  0  0
M  CHG 1  28   1
M  END
> <minimizedAffinity>
-8.52846

$$$$
1O5E_132_H_256


 32 35  0  0  0  0  0  0  0  0999 V2000
   15.6508   -6.4928   25.1308 C   0  0  0  0  0  0  0  0  0  0  0  0
   16.7477   -7.3140   25.6309 C   0  0  0  0  0  0  0  0  0  0  0  0
   17.3832   -6.9675   26.8369 C   0  0  0  0  0  0  0  0  0  0  0  0
   16.9099   -5.8277   27.4697 C   0  0  0  0  0  0  0  0  0  0  0  0
   15.9120   -5.0626   27.0201 C   0  0  0  0  0  0  0  0  0  0  0  0
   15.2764   -5.3795   25.8747 C   0  0  0  0  0  0  0  0  0  0  0  0
   17.3213   -5.2440   28.5784 N   0  0  0  0  0  0  0  0  0  0  0  0
   15.7347   -4.0440   27.8523 C   0  0  0  0  0  0  0  0  0  0  0  0
   16.6389   -4.1322   28.8779 C   0  0  0  0  0  0  0  0  0  0  0  0
   17.4631   -8.7186   24.7737 Cl  0  0  0  0  0  0  0  0  0  0  0  0
   18.0580   -5.5917   29.1313 H   0  0  0  0  0  0  0  0  0  0  0  0
   16.9034   -3.2900   29.9849 C   0  0  0  0  0  0  0  0  0  0  0  0
   17.8758   -3.6937   30.9205 C   0  0  0  0  0  0  0  0  0  0  0  0
   18.1718   -2.9580   32.0368 C   0  0  0  0  0  0  0  0  0  0  0  0
   17.4956   -1.7693   32.2591 C   0  0  0  0  0  0  0  0  0  0  0  0
   16.5116   -1.2836   31.3760 C   0  0  0  0  0  0  0  0  0  0  0  0
   16.2352   -2.0786   30.2441 C   0  0  0  0  0  0  0  0  0  0  0  0
   15.2579   -1.6984   29.3489 O   0  0  0  0  0  0  0  0  0  0  0  0
   15.0777   -2.2296   28.5983 H   0  0  0  0  0  0  0  0  0  0  0  0
   15.8923   -0.0416   31.6550 C   0  0  0  0  0  0  0  0  0  0  0  0
   16.3993    1.1673   31.1559 C   0  0  0  0  0  0  0  0  0  0  0  0
   15.7720    2.4096   31.3930 C   0  0  0  0  0  0  0  0  0  0  0  0
   14.6226    2.4542   32.1326 C   0  0  0  0  0  0  0  0  0  0  0  0
   14.1009    1.2719   32.6406 C   0  0  0  0  0  0  0  0  0  0  0  0
   14.7196    0.0517   32.4073 C   0  0  0  0  0  0  0  0  0  0  0  0
   14.9411   -6.7164   23.9570 C   0  0  0  0  0  0  0  0  0  0  0  0
   15.5224   -7.1085   22.8700 N   0  0  0  0  0  0  0  0  0  0  0  0
   13.6732   -6.5236   23.9612 N   0  0  0  0  0  0  0  0  0  0  0  0
   16.4953   -7.2587   22.8587 H   0  0  0  0  0  0  0  0  0  0  0  0
   14.9919   -7.2568   22.0540 H   0  0  0  0  0  0  0  0  0  0  0  0
   13.2234   -6.2251   24.7845 H   0  0  0  0  0  0  0  0  0  0  0  0
   13.1497   -6.6741   23.1411 H   0  0  0  0  0  0  0  0  0  0  0  0
  1  2  1  0  0  0
  1  6  2  0  0  0
  1 26  1  0  0  0
  2  3  2  0  0  0
  2 10  1  0  0  0
  3  4  1  0  0  0
  4  5  2  0  0  0
  4  7  1  0  0  0
  5  6  1  0  0  0
  5  8  1  0  0  0
 26 27  1  0  0  0
 26 28  2  0  0  0
  7  9  1  0  0  0
  8  9  2  0  0  0
  9 12  1  0  0  0
 12 13  2  0  0  0
 12 17  1  0  0  0
 13 14  1  0  0  0
 14 15  2  0  0  0
 15 16  1  0  0  0
 16 17  2  0  0  0
 16 20  1  0  0  0
 17 18  1  0  0  0
 20 21  2  0  0  0
 20 25  1  0  0  0
 21 22  1  0  0  0
 22 23  2  0  0  0
 23 24  1  0  0  0
 24 25  2  0  0  0
 27 29  1  0  0  0
 27 30  1  0  0  0
 28 31  1  0  0  0
 28 32  1  0  0  0
  7 11  1  0  0  0
 18 19  1  0  0  0
M  CHG 1  28   1
M  END
> <minimizedAffinity>
-8.26458

$$$$
1O5E_132_H_256


 32 35  0  0  0  0  0  0  0  0999 V2000
   16.1412    1.5785   32.0841 C   0  0  0  0  0  0  0  0  0  0  0  0
   14.7979    1.5706   31.5156 C   0  0  0  0  0  0  0  0  0  0  0  0
   14.3131    0.4075   30.8907 C   0  0  0  0  0  0  0  0  0  0  0  0
   15.1837   -0.6714   30.8514 C   0  0  0  0  0  0  0  0  0  0  0  0
   16.4181   -0.6762   31.3609 C   0  0  0  0  0  0  0  0  0  0  0  0
   16.9025    0.4200   31.9775 C   0  0  0  0  0  0  0  0  0  0  0  0
   15.0272   -1.8645   30.3117 N   0  0  0  0  0  0  0  0  0  0  0  0
   16.9811   -1.8553   31.1283 C   0  0  0  0  0  0  0  0  0  0  0  0
   16.1010   -2.6524   30.4447 C   0  0  0  0  0  0  0  0  0  0  0  0
   13.6978    2.9860   31.4402 Cl  0  0  0  0  0  0  0  0  0  0  0  0
   14.2019   -2.1478   29.8559 H   0  0  0  0  0  0  0  0  0  0  0  0
   16.2176   -3.9623   29.9198 C   0  0  0  0  0  0  0  0  0  0  0  0
   16.5451   -5.0128   30.7989 C   0  0  0  0  0  0  0  0  0  0  0  0
   16.7103   -6.3036   30.3725 C   0  0  0  0  0  0  0  0  0  0  0  0
   16.5475   -6.5948   29.0278 C   0  0  0  0  0  0  0  0  0  0  0  0
   16.2147   -5.6106   28.0768 C   0  0  0  0  0  0  0  0  0  0  0  0
   16.0620   -4.2946   28.5610 C   0  0  0  0  0  0  0  0  0  0  0  0
   15.7763   -3.2627   27.6924 O   0  0  0  0  0  0  0  0  0  0  0  0
   15.6757   -2.3900   28.0186 H   0  0  0  0  0  0  0  0  0  0  0  0
   16.0298   -5.9957   26.7271 C   0  0  0  0  0  0  0  0  0  0  0  0
   16.8560   -6.9452   26.1081 C   0  0  0  0  0  0  0  0  0  0  0  0
   16.6609   -7.3681   24.7753 C   0  0  0  0  0  0  0  0  0  0  0  0
   15.6291   -6.8450   24.0462 C   0  0  0  0  0  0  0  0  0  0  0  0
   14.7977   -5.9013   24.6345 C   0  0  0  0  0  0  0  0  0  0  0  0
   14.9916   -5.4860   25.9445 C   0  0  0  0  0  0  0  0  0  0  0  0
   16.7445    2.6554   32.7226 C   0  0  0  0  0  0  0  0  0  0  0  0
   17.8895    3.1223   32.3428 N   0  0  0  0  0  0  0  0  0  0  0  0
   16.1413    3.1941   33.7180 N   0  0  0  0  0  0  0  0  0  0  0  0
   18.3588    2.7143   31.5796 H   0  0  0  0  0  0  0  0  0  0  0  0
   18.2915    3.8857   32.8169 H   0  0  0  0  0  0  0  0  0  0  0  0
   15.2696    2.8446   34.0131 H   0  0  0  0  0  0  0  0  0  0  0  0
   16.5500    3.9572   34.1869 H   0  0  0  0  0  0  0  0  0  0  0  0
  1  2  1  0  0  0
  1  6  2  0  0  0
  1 26  1  0  0  0
  2  3  2  0  0  0
  2 10  1  0  0  0
  3  4  1  0  0  0
  4  5  2  0  0  0
  4  7  1  0  0  0
  5  6  1  0  0  0
  5  8  1  0  0  0
 26 27  1  0  0  0
 26 28  2  0  0  0
  7  9  1  0  0  0
  8  9  2  0  0  0
  9 12  1  0  0  0
 12 13  2  0  0  0
 12 17  1  0  0  0
 13 14  1  0  0  0
 14 15  2  0  0  0
 15 16  1  0  0  0
 16 17  2  0  0  0
 16 20  1  0  0  0
 17 18  1  0  0  0
 20 21  2  0  0  0
 20 25  1  0  0  0
 21 22  1  0  0  0
 22 23  2  0  0  0
 23 24  1  0  0  0
 24 25  2  0  0  0
 27 29  1  0  0  0
 27 30  1  0  0  0
 28 31  1  0  0  0
 28 32  1  0  0  0
  7 11  1  0  0  0
 18 19  1  0  0  0
M  CHG 1  28   1
M  END
> <minimizedAffinity>
-8.15178

$$$$
1O5E_132_H_256


 32 35  0  0  0  0  0  0  0  0999 V2000
   16.2868   -6.7726   25.1921 C   0  0  0  0  0  0  0  0  0  0  0  0
   15.0374   -6.0621   24.9431 C   0  0  0  0  0  0  0  0  0  0  0  0
   14.6617   -4.9987   25.7835 C   0  0  0  0  0  0  0  0  0  0  0  0
   15.5307   -4.7083   26.8247 C   0  0  0  0  0  0  0  0  0  0  0  0
   16.6736   -5.3545   27.0689 C   0  0  0  0  0  0  0  0  0  0  0  0
   17.0645   -6.3679   26.2711 C   0  0  0  0  0  0  0  0  0  0  0  0
   15.4328   -3.8047   27.7803 N   0  0  0  0  0  0  0  0  0  0  0  0
   17.2435   -4.8384   28.1508 C   0  0  0  0  0  0  0  0  0  0  0  0
   16.4589   -3.8271   28.6394 C   0  0  0  0  0  0  0  0  0  0  0  0
   13.8345   -6.4940   23.6837 Cl  0  0  0  0  0  0  0  0  0  0  0  0
   14.6791   -3.1756   27.8545 H   0  0  0  0  0  0  0  0  0  0  0  0
   16.5818   -2.9971   29.7800 C   0  0  0  0  0  0  0  0  0  0  0  0
   16.0318   -1.7014   29.7318 C   0  0  0  0  0  0  0  0  0  0  0  0
   16.1328   -0.8207   30.7756 C   0  0  0  0  0  0  0  0  0  0  0  0
   16.7967   -1.2135   31.9265 C   0  0  0  0  0  0  0  0  0  0  0  0
   17.3733   -2.4909   32.0671 C   0  0  0  0  0  0  0  0  0  0  0  0
   17.2507   -3.3610   30.9637 C   0  0  0  0  0  0  0  0  0  0  0  0
   17.8208   -4.6158   31.0007 O   0  0  0  0  0  0  0  0  0  0  0  0
   17.7368   -5.1904   30.2654 H   0  0  0  0  0  0  0  0  0  0  0  0
   18.0028   -2.8285   33.2894 C   0  0  0  0  0  0  0  0  0  0  0  0
   19.3574   -2.5519   33.5258 C   0  0  0  0  0  0  0  0  0  0  0  0
   19.9901   -2.8472   34.7528 C   0  0  0  0  0  0  0  0  0  0  0  0
   19.2684   -3.4219   35.7623 C   0  0  0  0  0  0  0  0  0  0  0  0
   17.9259   -3.7084   35.5534 C   0  0  0  0  0  0  0  0  0  0  0  0
   17.3060   -3.4182   34.3461 C   0  0  0  0  0  0  0  0  0  0  0  0
   16.7747   -7.8393   24.4468 C   0  0  0  0  0  0  0  0  0  0  0  0
   18.0425   -8.0617   24.3191 N   0  0  0  0  0  0  0  0  0  0  0  0
   15.9353   -8.6193   23.8707 N   0  0  0  0  0  0  0  0  0  0  0  0
   18.6932   -7.4675   24.7582 H   0  0  0  0  0  0  0  0  0  0  0  0
   18.3568   -8.8252   23.7829 H   0  0  0  0  0  0  0  0  0  0  0  0
   14.9687   -8.4567   23.9631 H   0  0  0  0  0  0  0  0  0  0  0  0
   16.2575   -9.3807   23.3362 H   0  0  0  0  0  0  0  0  0  0  0  0
  1  2  1  0  0  0
  1  6  2  0  0  0
  1 26  1  0  0  0
  2  3  2  0  0  0
  2 10  1  0  0  0
  3  4  1  0  0  0
  4  5  2  0  0  0
  4  7  1  0  0  0
  5  6  1  0  0  0
  5  8  1  0  0  0
 26 27  1  0  0  0
 26 28  2  0  0  0
  7  9  1  0  0  0
  8  9  2  0  0  0
  9 12  1  0  0  0
 12 13  2  0  0  0
 12 17  1  0  0  0
 13 14  1  0  0  0
 14 15  2  0  0  0
 15 16  1  0  0  0
 16 17  2  0  0  0
 16 20  1  0  0  0
 17 18  1  0  0  0
 20 21  2  0  0  0
 20 25  1  0  0  0
 21 22  1  0  0  0
 22 23  2  0  0  0
 23 24  1  0  0  0
 24 25  2  0  0  0
 27 29  1  0  0  0
 27 30  1  0  0  0
 28 31  1  0  0  0
 28 32  1  0  0  0
  7 11  1  0  0  0
 18 19  1  0  0  0
M  CHG 1  28   1
M  END
> <minimizedAffinity>
-8.07814

$$$$
1O5E_132_H_256


 32 35  0  0  0  0  0  0  0  0999 V2000
   14.6239    0.6810   32.4920 C   0  0  0  0  0  0  0  0  0  0  0  0
   15.4854    0.1900   33.5617 C   0  0  0  0  0  0  0  0  0  0  0  0
   16.3501   -0.8922   33.3181 C   0  0  0  0  0  0  0  0  0  0  0  0
   16.3047   -1.4334   32.0419 C   0  0  0  0  0  0  0  0  0  0  0  0
   15.5163   -0.9991   31.0554 C   0  0  0  0  0  0  0  0  0  0  0  0
   14.6885    0.0450   31.2573 C   0  0  0  0  0  0  0  0  0  0  0  0
   16.9620   -2.4580   31.5344 N   0  0  0  0  0  0  0  0  0  0  0  0
   15.7073   -1.7539   29.9805 C   0  0  0  0  0  0  0  0  0  0  0  0
   16.6425   -2.7153   30.2604 C   0  0  0  0  0  0  0  0  0  0  0  0
   15.4763    0.7866   35.2540 Cl  0  0  0  0  0  0  0  0  0  0  0  0
   17.6225   -2.9819   32.0427 H   0  0  0  0  0  0  0  0  0  0  0  0
   17.1645   -3.7838   29.4919 C   0  0  0  0  0  0  0  0  0  0  0  0
   18.3584   -4.3982   29.9170 C   0  0  0  0  0  0  0  0  0  0  0  0
   18.9511   -5.4155   29.2177 C   0  0  0  0  0  0  0  0  0  0  0  0
   18.3578   -5.8644   28.0489 C   0  0  0  0  0  0  0  0  0  0  0  0
   17.1611   -5.3142   27.5497 C   0  0  0  0  0  0  0  0  0  0  0  0
   16.5912   -4.2641   28.2994 C   0  0  0  0  0  0  0  0  0  0  0  0
   15.4417   -3.6412   27.8618 O   0  0  0  0  0  0  0  0  0  0  0  0
   15.0667   -2.9440   28.3631 H   0  0  0  0  0  0  0  0  0  0  0  0
   16.5987   -5.8536   26.3678 C   0  0  0  0  0  0  0  0  0  0  0  0
   17.1128   -7.0107   25.7644 C   0  0  0  0  0  0  0  0  0  0  0  0
   16.5399   -7.5828   24.6078 C   0  0  0  0  0  0  0  0  0  0  0  0
   15.4385   -7.0016   24.0429 C   0  0  0  0  0  0  0  0  0  0  0  0
   14.9110   -5.8538   24.6192 C   0  0  0  0  0  0  0  0  0  0  0  0
   15.4762   -5.2922   25.7556 C   0  0  0  0  0  0  0  0  0  0  0  0
   13.7231    1.7342   32.5960 C   0  0  0  0  0  0  0  0  0  0  0  0
   13.8197    2.7925   31.8585 N   0  0  0  0  0  0  0  0  0  0  0  0
   12.7728    1.6457   33.4526 N   0  0  0  0  0  0  0  0  0  0  0  0
   14.5463    2.8681   31.1986 H   0  0  0  0  0  0  0  0  0  0  0  0
   13.1665    3.5225   31.9572 H   0  0  0  0  0  0  0  0  0  0  0  0
   12.6925    0.8434   34.0176 H   0  0  0  0  0  0  0  0  0  0  0  0
   12.1236    2.3799   33.5452 H   0  0  0  0  0  0  0  0  0  0  0  0
  1  2  1  0  0  0
  1  6  2  0  0  0
  1 26  1  0  0  0
  2  3  2  0  0  0
  2 10  1  0  0  0
  3  4  1  0  0  0
  4  5  2  0  0  0
  4  7  1  0  0  0
  5  6  1  0  0  0
  5  8  1  0  0  0
 26 27  1  0  0  0
 26 28  2  0  0  0
  7  9  1  0  0  0
  8  9  2  0  0  0
  9 12  1  0  0  0
 12 13  2  0  0  0
 12 17  1  0  0  0
 13 14  1  0  0  0
 14 15  2  0  0  0
 15 16  1  0  0  0
 16 17  2  0  0  0
 16 20  1  0  0  0
 17 18  1  0  0  0
 20 21  2  0  0  0
 20 25  1  0  0  0
 21 22  1  0  0  0
 22 23  2  0  0  0
 23 24  1  0  0  0
 24 25  2  0  0  0
 27 29  1  0  0  0
 27 30  1  0  0  0
 28 31  1  0  0  0
 28 32  1  0  0  0
  7 11  1  0  0  0
 18 19  1  0  0  0
M  CHG 1  28   1
M  END
> <minimizedAffinity>
-7.87107

$$$$
1O5E_132_H_256


 32 35  0  0  0  0  0  0  0  0999 V2000
   16.2688   -6.5526   25.7897 C   0  0  0  0  0  0  0  0  0  0  0  0
   15.5713   -5.2879   25.5855 C   0  0  0  0  0  0  0  0  0  0  0  0
   15.1973   -4.5116   26.6972 C   0  0  0  0  0  0  0  0  0  0  0  0
   15.5202   -5.0330   27.9412 C   0  0  0  0  0  0  0  0  0  0  0  0
   16.1518   -6.1922   28.1433 C   0  0  0  0  0  0  0  0  0  0  0  0
   16.5340   -6.9490   27.0957 C   0  0  0  0  0  0  0  0  0  0  0  0
   15.2728   -4.5586   29.1465 N   0  0  0  0  0  0  0  0  0  0  0  0
   16.2781   -6.3979   29.4484 C   0  0  0  0  0  0  0  0  0  0  0  0
   15.7139   -5.3519   30.1302 C   0  0  0  0  0  0  0  0  0  0  0  0
   15.0301   -4.6490   23.9986 Cl  0  0  0  0  0  0  0  0  0  0  0  0
   14.8093   -3.7050   29.3071 H   0  0  0  0  0  0  0  0  0  0  0  0
   15.5400   -5.1042   31.5134 C   0  0  0  0  0  0  0  0  0  0  0  0
   16.6551   -5.2285   32.3647 C   0  0  0  0  0  0  0  0  0  0  0  0
   16.5710   -5.0398   33.7185 C   0  0  0  0  0  0  0  0  0  0  0  0
   15.3470   -4.7110   34.2780 C   0  0  0  0  0  0  0  0  0  0  0  0
   14.1793   -4.5600   33.5049 C   0  0  0  0  0  0  0  0  0  0  0  0
   14.3127   -4.7712   32.1167 C   0  0  0  0  0  0  0  0  0  0  0  0
   13.2121   -4.6835   31.2909 O   0  0  0  0  0  0  0  0  0  0  0  0
   13.3055   -4.8247   30.3693 H   0  0  0  0  0  0  0  0  0  0  0  0
   12.9746   -4.1863   34.1478 C   0  0  0  0  0  0  0  0  0  0  0  0
   12.0333   -5.1377   34.5674 C   0  0  0  0  0  0  0  0  0  0  0  0
   10.8456   -4.7841   35.2438 C   0  0  0  0  0  0  0  0  0  0  0  0
   10.5887   -3.4680   35.5120 C   0  0  0  0  0  0  0  0  0  0  0  0
   11.5032   -2.5057   35.1051 C   0  0  0  0  0  0  0  0  0  0  0  0
   12.6697   -2.8551   34.4393 C   0  0  0  0  0  0  0  0  0  0  0  0
   16.6903   -7.4167   24.7862 C   0  0  0  0  0  0  0  0  0  0  0  0
   17.9400   -7.6965   24.6042 N   0  0  0  0  0  0  0  0  0  0  0  0
   15.8066   -7.9458   24.0219 N   0  0  0  0  0  0  0  0  0  0  0  0
   18.6243   -7.2945   25.1867 H   0  0  0  0  0  0  0  0  0  0  0  0
   18.2068   -8.3115   23.8832 H   0  0  0  0  0  0  0  0  0  0  0  0
   14.8535   -7.7379   24.1539 H   0  0  0  0  0  0  0  0  0  0  0  0
   16.0815   -8.5598   23.3031 H   0  0  0  0  0  0  0  0  0  0  0  0
  1  2  1  0  0  0
  1  6  2  0  0  0
  1 26  1  0  0  0
  2  3  2  0  0  0
  2 10  1  0  0  0
  3  4  1  0  0  0
  4  5  2  0  0  0
  4  7  1  0  0  0
  5  6  1  0  0  0
  5  8  1  0  0  0
 26 27  1  0  0  0
 26 28  2  0  0  0
  7  9  1  0  0  0
  8  9  2  0  0  0
  9 12  1  0  0  0
 12 13  2  0  0  0
 12 17  1  0  0  0
 13 14  1  0  0  0
 14 15  2  0  0  0
 15 16  1  0  0  0
 16 17  2  0  0  0
 16 20  1  0  0  0
 17 18  1  0  0  0
 20 21  2  0  0  0
 20 25  1  0  0  0
 21 22  1  0  0  0
 22 23  2  0  0  0
 23 24  1  0  0  0
 24 25  2  0  0  0
 27 29  1  0  0  0
 27 30  1  0  0  0
 28 31  1  0  0  0
 28 32  1  0  0  0
  7 11  1  0  0  0
 18 19  1  0  0  0
M  CHG 1  28   1
M  END
> <minimizedAffinity>
-7.60318

$$$$
1O5E_132_H_256


 32 35  0  0  0  0  0  0  0  0999 V2000
   17.6180   -5.4106   29.5311 C   0  0  0  0  0  0  0  0  0  0  0  0
   18.2232   -5.4092   30.8582 C   0  0  0  0  0  0  0  0  0  0  0  0
   18.0619   -4.2909   31.6959 C   0  0  0  0  0  0  0  0  0  0  0  0
   17.3269   -3.2379   31.1721 C   0  0  0  0  0  0  0  0  0  0  0  0
   16.7734   -3.2223   29.9569 C   0  0  0  0  0  0  0  0  0  0  0  0
   16.9005   -4.2860   29.1391 C   0  0  0  0  0  0  0  0  0  0  0  0
   17.0401   -2.0631   31.6983 N   0  0  0  0  0  0  0  0  0  0  0  0
   16.1664   -2.0571   29.7693 C   0  0  0  0  0  0  0  0  0  0  0  0
   16.3230   -1.2780   30.8854 C   0  0  0  0  0  0  0  0  0  0  0  0
   19.2816   -6.7011   31.5143 Cl  0  0  0  0  0  0  0  0  0  0  0  0
   17.3254   -1.7905   32.6003 H   0  0  0  0  0  0  0  0  0  0  0  0
   15.9198    0.0464   31.1826 C   0  0  0  0  0  0  0  0  0  0  0  0
   14.6192    0.4505   30.8234 C   0  0  0  0  0  0  0  0  0  0  0  0
   14.1574    1.7209   31.0426 C   0  0  0  0  0  0  0  0  0  0  0  0
   14.9942    2.6477   31.6428 C   0  0  0  0  0  0  0  0  0  0  0  0
   16.3081    2.3326   32.0408 C   0  0  0  0  0  0  0  0  0  0  0  0
   16.7426    1.0146   31.7881 C   0  0  0  0  0  0  0  0  0  0  0  0
   18.0279    0.6324   32.1088 O   0  0  0  0  0  0  0  0  0  0  0  0
   18.3121   -0.2442   31.9391 H   0  0  0  0  0  0  0  0  0  0  0  0
   17.0876    3.3256   32.6814 C   0  0  0  0  0  0  0  0  0  0  0  0
   18.1314    3.9888   32.0196 C   0  0  0  0  0  0  0  0  0  0  0  0
   18.8927    5.0081   32.6319 C   0  0  0  0  0  0  0  0  0  0  0  0
   18.6128    5.3784   33.9182 C   0  0  0  0  0  0  0  0  0  0  0  0
   17.5859    4.7358   34.5969 C   0  0  0  0  0  0  0  0  0  0  0  0
   16.8393    3.7334   33.9937 C   0  0  0  0  0  0  0  0  0  0  0  0
   17.7015   -6.4421   28.6035 C   0  0  0  0  0  0  0  0  0  0  0  0
   18.8378   -6.9232   28.2156 N   0  0  0  0  0  0  0  0  0  0  0  0
   16.6144   -6.9231   28.1222 N   0  0  0  0  0  0  0  0  0  0  0  0
   19.6767   -6.5593   28.5804 H   0  0  0  0  0  0  0  0  0  0  0  0
   18.8638   -7.6533   27.5557 H   0  0  0  0  0  0  0  0  0  0  0  0
   15.7456   -6.5624   28.4124 H   0  0  0  0  0  0  0  0  0  0  0  0
   16.6488   -7.6532   27.4626 H   0  0  0  0  0  0  0  0  0  0  0  0
  1  2  1  0  0  0
  1  6  2  0  0  0
  1 26  1  0  0  0
  2  3  2  0  0  0
  2 10  1  0  0  0
  3  4  1  0  0  0
  4  5  2  0  0  0
  4  7  1  0  0  0
  5  6  1  0  0  0
  5  8  1  0  0  0
 26 27  1  0  0  0
 26 28  2  0  0  0
  7  9  1  0  0  0
  8  9  2  0  0  0
  9 12  1  0  0  0
 12 13  2  0  0  0
 12 17  1  0  0  0
 13 14  1  0  0  0
 14 15  2  0  0  0
 15 16  1  0  0  0
 16 17  2  0  0  0
 16 20  1  0  0  0
 17 18  1  0  0  0
 20 21  2  0  0  0
 20 25  1  0  0  0
 21 22  1  0  0  0
 22 23  2  0  0  0
 23 24  1  0  0  0
 24 25  2  0  0  0
 27 29  1  0  0  0
 27 30  1  0  0  0
 28 31  1  0  0  0
 28 32  1  0  0  0
  7 11  1  0  0  0
 18 19  1  0  0  0
M  CHG 1  28   1
M  END
> <minimizedAffinity>
-7.58590

$$$$
