5M7S_NHT_A_1001


 20 21  0  0  0  0  0  0  0  0999 V2000
  -16.0981    3.7488   37.8013 C   0  0  0  0  0  0  0  0  0  0  0  0
  -15.6655    2.3645   37.3159 C   0  0  0  0  0  0  0  0  0  0  0  0
  -14.4428    1.7894   38.0323 C   0  0  0  0  0  0  0  0  0  0  0  0
  -13.3360    2.8502   38.0634 C   0  0  0  0  0  0  0  0  0  0  0  0
  -13.8721    4.1044   38.7487 C   0  0  0  0  0  0  0  0  0  0  0  0
  -17.5378    1.8844   38.5421 C   0  0  0  0  0  0  0  0  0  0  0  0
  -16.8747    1.5282   37.4828 N   0  0  0  0  0  0  0  0  0  0  0  0
  -13.9994    0.6077   37.3450 O   0  0  0  0  0  0  0  0  0  0  0  0
  -12.1917    2.3689   38.7786 O   0  0  0  0  0  0  0  0  0  0  0  0
  -15.0040    4.6240   38.0153 O   0  0  0  0  0  0  0  0  0  0  0  0
  -17.0730    3.4020   39.3069 S   0  0  0  0  0  0  0  0  0  0  0  0
  -13.7680    0.8333   36.4304 H   0  0  0  0  0  0  0  0  0  0  0  0
  -12.4447    2.1620   39.6919 H   0  0  0  0  0  0  0  0  0  0  0  0
  -12.8560    5.2209   38.8456 C   0  0  0  0  0  0  0  0  0  0  0  0
  -12.0392    5.2648   37.6703 O   0  0  0  0  0  0  0  0  0  0  0  0
  -12.5981    5.4258   36.8940 H   0  0  0  0  0  0  0  0  0  0  0  0
  -18.5641    1.1245   38.9879 N   0  0  0  0  0  0  0  0  0  0  0  0
  -18.4747    0.1476   38.9038 H   0  0  0  0  0  0  0  0  0  0  0  0
  -20.0254    1.0930   40.9568 C   0  0  0  0  0  0  0  0  0  0  0  0
  -19.7898    1.6363   39.5819 C   0  0  0  0  0  0  0  0  0  0  0  0
 15 14  1  0  0  0
 14  5  1  0  0  0
  5 10  1  0  0  0
  5  4  1  0  0  0
 10  1  1  0  0  0
  4  9  1  0  0  0
  4  3  1  0  0  0
  3  8  1  0  0  0
  3  2  1  0  0  0
  2  7  1  0  0  0
  2  1  1  0  0  0
  7  6  2  0  0  0
  1 11  1  0  0  0
 11  6  1  0  0  0
  6 17  1  0  0  0
 17 20  1  0  0  0
 20 19  1  0  0  0
  8 12  1  0  0  0
  9 13  1  0  0  0
 17 18  1  0  0  0
 15 16  1  0  0  0
M  END
> <minimizedAffinity>
-7.62650

$$$$
5M7S_NHT_A_1001


 20 21  0  0  0  0  0  0  0  0999 V2000
  -15.4510    2.8619   37.0383 C   0  0  0  0  0  0  0  0  0  0  0  0
  -14.6279    2.2125   38.1517 C   0  0  0  0  0  0  0  0  0  0  0  0
  -13.7230    3.1752   38.9220 C   0  0  0  0  0  0  0  0  0  0  0  0
  -12.9244    4.0199   37.9219 C   0  0  0  0  0  0  0  0  0  0  0  0
  -13.8992    4.7513   37.0030 C   0  0  0  0  0  0  0  0  0  0  0  0
  -16.7241    2.2698   39.0696 C   0  0  0  0  0  0  0  0  0  0  0  0
  -15.6373    1.5594   39.0142 N   0  0  0  0  0  0  0  0  0  0  0  0
  -12.8429    2.4237   39.7742 O   0  0  0  0  0  0  0  0  0  0  0  0
  -12.1054    4.9762   38.6055 O   0  0  0  0  0  0  0  0  0  0  0  0
  -14.7063    3.7971   36.2769 O   0  0  0  0  0  0  0  0  0  0  0  0
  -16.8781    3.5915   37.9148 S   0  0  0  0  0  0  0  0  0  0  0  0
  -12.3023    1.8261   39.2342 H   0  0  0  0  0  0  0  0  0  0  0  0
  -12.6680    5.5690   39.1279 H   0  0  0  0  0  0  0  0  0  0  0  0
  -13.2184    5.6289   35.9758 C   0  0  0  0  0  0  0  0  0  0  0  0
  -11.8878    5.1667   35.7183 O   0  0  0  0  0  0  0  0  0  0  0  0
  -11.9213    4.2607   35.3732 H   0  0  0  0  0  0  0  0  0  0  0  0
  -17.6958    1.9559   39.9566 N   0  0  0  0  0  0  0  0  0  0  0  0
  -17.4256    1.8089   40.8918 H   0  0  0  0  0  0  0  0  0  0  0  0
  -19.8792    1.1624   40.7414 C   0  0  0  0  0  0  0  0  0  0  0  0
  -19.1088    1.8182   39.6380 C   0  0  0  0  0  0  0  0  0  0  0  0
 15 14  1  0  0  0
 14  5  1  0  0  0
  5 10  1  0  0  0
  5  4  1  0  0  0
 10  1  1  0  0  0
  4  9  1  0  0  0
  4  3  1  0  0  0
  3  8  1  0  0  0
  3  2  1  0  0  0
  2  7  1  0  0  0
  2  1  1  0  0  0
  7  6  2  0  0  0
  1 11  1  0  0  0
 11  6  1  0  0  0
  6 17  1  0  0  0
 17 20  1  0  0  0
 20 19  1  0  0  0
  8 12  1  0  0  0
  9 13  1  0  0  0
 17 18  1  0  0  0
 15 16  1  0  0  0
M  END
> <minimizedAffinity>
-7.17568

$$$$
5M7S_NHT_A_1001


 20 21  0  0  0  0  0  0  0  0999 V2000
  -14.6989    4.1336   38.5590 C   0  0  0  0  0  0  0  0  0  0  0  0
  -13.8255    3.0835   37.8710 C   0  0  0  0  0  0  0  0  0  0  0  0
  -14.6003    1.9520   37.1941 C   0  0  0  0  0  0  0  0  0  0  0  0
  -15.6405    1.4000   38.1763 C   0  0  0  0  0  0  0  0  0  0  0  0
  -16.5521    2.5398   38.6233 C   0  0  0  0  0  0  0  0  0  0  0  0
  -13.6835    4.8533   36.4263 C   0  0  0  0  0  0  0  0  0  0  0  0
  -13.0019    3.8637   36.9211 N   0  0  0  0  0  0  0  0  0  0  0  0
  -13.6834    0.9223   36.7883 O   0  0  0  0  0  0  0  0  0  0  0  0
  -16.4276    0.3746   37.5589 O   0  0  0  0  0  0  0  0  0  0  0  0
  -15.7761    3.5649   39.2835 O   0  0  0  0  0  0  0  0  0  0  0  0
  -15.2225    5.2315   37.1959 S   0  0  0  0  0  0  0  0  0  0  0  0
  -13.2160    0.5805   37.5665 H   0  0  0  0  0  0  0  0  0  0  0  0
  -16.8941    0.7426   36.7921 H   0  0  0  0  0  0  0  0  0  0  0  0
  -17.6302    2.1065   39.5921 C   0  0  0  0  0  0  0  0  0  0  0  0
  -18.8270    1.7510   38.8909 O   0  0  0  0  0  0  0  0  0  0  0  0
  -18.6419    1.0134   38.2887 H   0  0  0  0  0  0  0  0  0  0  0  0
  -13.1859    5.5709   35.3934 N   0  0  0  0  0  0  0  0  0  0  0  0
  -12.9991    5.0894   34.5553 H   0  0  0  0  0  0  0  0  0  0  0  0
  -13.8808    7.7870   34.6065 C   0  0  0  0  0  0  0  0  0  0  0  0
  -12.9048    6.9983   35.4228 C   0  0  0  0  0  0  0  0  0  0  0  0
 15 14  1  0  0  0
 14  5  1  0  0  0
  5 10  1  0  0  0
  5  4  1  0  0  0
 10  1  1  0  0  0
  4  9  1  0  0  0
  4  3  1  0  0  0
  3  8  1  0  0  0
  3  2  1  0  0  0
  2  7  1  0  0  0
  2  1  1  0  0  0
  7  6  2  0  0  0
  1 11  1  0  0  0
 11  6  1  0  0  0
  6 17  1  0  0  0
 17 20  1  0  0  0
 20 19  1  0  0  0
  8 12  1  0  0  0
  9 13  1  0  0  0
 17 18  1  0  0  0
 15 16  1  0  0  0
M  END
> <minimizedAffinity>
-7.00898

$$$$
5M7S_NHT_A_1001


 20 21  0  0  0  0  0  0  0  0999 V2000
  -13.6417    4.9742   36.2938 C   0  0  0  0  0  0  0  0  0  0  0  0
  -15.1261    4.6217   36.1880 C   0  0  0  0  0  0  0  0  0  0  0  0
  -15.8093    4.3259   37.5239 C   0  0  0  0  0  0  0  0  0  0  0  0
  -14.9524    3.3302   38.3148 C   0  0  0  0  0  0  0  0  0  0  0  0
  -13.5545    3.9158   38.4963 C   0  0  0  0  0  0  0  0  0  0  0  0
  -15.1388    6.8830   35.8328 C   0  0  0  0  0  0  0  0  0  0  0  0
  -15.7229    5.7766   35.4813 N   0  0  0  0  0  0  0  0  0  0  0  0
  -17.1210    3.7913   37.2806 O   0  0  0  0  0  0  0  0  0  0  0  0
  -15.5309    3.0713   39.5997 O   0  0  0  0  0  0  0  0  0  0  0  0
  -12.9427    4.1459   37.2072 O   0  0  0  0  0  0  0  0  0  0  0  0
  -13.6411    6.7431   36.7501 S   0  0  0  0  0  0  0  0  0  0  0  0
  -17.0464    2.9749   36.7622 H   0  0  0  0  0  0  0  0  0  0  0  0
  -15.5838    3.8987   40.1031 H   0  0  0  0  0  0  0  0  0  0  0  0
  -12.6201    3.0178   39.2768 C   0  0  0  0  0  0  0  0  0  0  0  0
  -12.4007    1.7872   38.5783 O   0  0  0  0  0  0  0  0  0  0  0  0
  -11.9979    1.9725   37.7155 H   0  0  0  0  0  0  0  0  0  0  0  0
  -15.6587    8.0739   35.4575 N   0  0  0  0  0  0  0  0  0  0  0  0
  -16.1252    8.6018   36.1452 H   0  0  0  0  0  0  0  0  0  0  0  0
  -14.3524    8.1997   33.3861 C   0  0  0  0  0  0  0  0  0  0  0  0
  -15.5831    8.6367   34.1178 C   0  0  0  0  0  0  0  0  0  0  0  0
 15 14  1  0  0  0
 14  5  1  0  0  0
  5 10  1  0  0  0
  5  4  1  0  0  0
 10  1  1  0  0  0
  4  9  1  0  0  0
  4  3  1  0  0  0
  3  8  1  0  0  0
  3  2  1  0  0  0
  2  7  1  0  0  0
  2  1  1  0  0  0
  7  6  2  0  0  0
  1 11  1  0  0  0
 11  6  1  0  0  0
  6 17  1  0  0  0
 17 20  1  0  0  0
 20 19  1  0  0  0
  8 12  1  0  0  0
  9 13  1  0  0  0
 17 18  1  0  0  0
 15 16  1  0  0  0
M  END
> <minimizedAffinity>
-6.24025

$$$$
5M7S_NHT_A_1001


 20 21  0  0  0  0  0  0  0  0999 V2000
  -15.2713    5.1041   37.1134 C   0  0  0  0  0  0  0  0  0  0  0  0
  -14.0001    5.5198   37.8551 C   0  0  0  0  0  0  0  0  0  0  0  0
  -12.9290    4.4320   37.9464 C   0  0  0  0  0  0  0  0  0  0  0  0
  -13.5775    3.1304   38.4329 C   0  0  0  0  0  0  0  0  0  0  0  0
  -14.7063    2.7531   37.4771 C   0  0  0  0  0  0  0  0  0  0  0  0
  -13.7759    6.6160   35.8582 C   0  0  0  0  0  0  0  0  0  0  0  0
  -13.5355    6.7235   37.1307 N   0  0  0  0  0  0  0  0  0  0  0  0
  -11.8942    4.8562   38.8492 O   0  0  0  0  0  0  0  0  0  0  0  0
  -12.6157    2.0695   38.4765 O   0  0  0  0  0  0  0  0  0  0  0  0
  -15.7046    3.7980   37.4526 O   0  0  0  0  0  0  0  0  0  0  0  0
  -14.8371    5.3045   35.3503 S   0  0  0  0  0  0  0  0  0  0  0  0
  -12.2759    5.0155   39.7266 H   0  0  0  0  0  0  0  0  0  0  0  0
  -12.2578    1.9208   37.5873 H   0  0  0  0  0  0  0  0  0  0  0  0
  -15.4151    1.4713   37.8555 C   0  0  0  0  0  0  0  0  0  0  0  0
  -15.1660    1.1416   39.2265 O   0  0  0  0  0  0  0  0  0  0  0  0
  -15.4968    1.8540   39.7957 H   0  0  0  0  0  0  0  0  0  0  0  0
  -13.2553    7.5139   34.9908 N   0  0  0  0  0  0  0  0  0  0  0  0
  -12.2981    7.4334   34.7751 H   0  0  0  0  0  0  0  0  0  0  0  0
  -14.4160    8.2408   32.9568 C   0  0  0  0  0  0  0  0  0  0  0  0
  -13.9980    8.5894   34.3513 C   0  0  0  0  0  0  0  0  0  0  0  0
 15 14  1  0  0  0
 14  5  1  0  0  0
  5 10  1  0  0  0
  5  4  1  0  0  0
 10  1  1  0  0  0
  4  9  1  0  0  0
  4  3  1  0  0  0
  3  8  1  0  0  0
  3  2  1  0  0  0
  2  7  1  0  0  0
  2  1  1  0  0  0
  7  6  2  0  0  0
  1 11  1  0  0  0
 11  6  1  0  0  0
  6 17  1  0  0  0
 17 20  1  0  0  0
 20 19  1  0  0  0
  8 12  1  0  0  0
  9 13  1  0  0  0
 17 18  1  0  0  0
 15 16  1  0  0  0
M  END
> <minimizedAffinity>
-6.23552

$$$$
5M7S_NHT_A_1001


 20 21  0  0  0  0  0  0  0  0999 V2000
  -14.1426    3.9974   38.1414 C   0  0  0  0  0  0  0  0  0  0  0  0
  -15.4412    4.7535   37.8574 C   0  0  0  0  0  0  0  0  0  0  0  0
  -15.6680    5.1037   36.3861 C   0  0  0  0  0  0  0  0  0  0  0  0
  -14.3958    5.7485   35.8231 C   0  0  0  0  0  0  0  0  0  0  0  0
  -13.2267    4.7863   36.0160 C   0  0  0  0  0  0  0  0  0  0  0  0
  -16.1933    2.6253   38.2380 C   0  0  0  0  0  0  0  0  0  0  0  0
  -16.4984    3.8770   38.4084 N   0  0  0  0  0  0  0  0  0  0  0  0
  -16.7869    5.9990   36.2759 O   0  0  0  0  0  0  0  0  0  0  0  0
  -14.5484    6.0392   34.4286 O   0  0  0  0  0  0  0  0  0  0  0  0
  -13.0359    4.5144   37.4227 O   0  0  0  0  0  0  0  0  0  0  0  0
  -14.5450    2.2630   37.7322 S   0  0  0  0  0  0  0  0  0  0  0  0
  -16.6056    6.8067   36.7814 H   0  0  0  0  0  0  0  0  0  0  0  0
  -14.7163    5.2162   33.9433 H   0  0  0  0  0  0  0  0  0  0  0  0
  -11.9135    5.3171   35.4847 C   0  0  0  0  0  0  0  0  0  0  0  0
  -11.9586    6.7428   35.3579 O   0  0  0  0  0  0  0  0  0  0  0  0
  -12.1199    7.1398   36.2281 H   0  0  0  0  0  0  0  0  0  0  0  0
  -17.1101    1.6630   38.4890 N   0  0  0  0  0  0  0  0  0  0  0  0
  -16.8025    0.7280   38.4706 H   0  0  0  0  0  0  0  0  0  0  0  0
  -18.8426    1.6563   40.2243 C   0  0  0  0  0  0  0  0  0  0  0  0
  -18.5150    1.9003   38.7841 C   0  0  0  0  0  0  0  0  0  0  0  0
 15 14  1  0  0  0
 14  5  1  0  0  0
  5 10  1  0  0  0
  5  4  1  0  0  0
 10  1  1  0  0  0
  4  9  1  0  0  0
  4  3  1  0  0  0
  3  8  1  0  0  0
  3  2  1  0  0  0
  2  7  1  0  0  0
  2  1  1  0  0  0
  7  6  2  0  0  0
  1 11  1  0  0  0
 11  6  1  0  0  0
  6 17  1  0  0  0
 17 20  1  0  0  0
 20 19  1  0  0  0
  8 12  1  0  0  0
  9 13  1  0  0  0
 17 18  1  0  0  0
 15 16  1  0  0  0
M  END
> <minimizedAffinity>
-6.16329

$$$$
5M7S_NHT_A_1001


 20 21  0  0  0  0  0  0  0  0999 V2000
  -12.9964    6.5867   36.3142 C   0  0  0  0  0  0  0  0  0  0  0  0
  -14.3581    6.3426   36.9661 C   0  0  0  0  0  0  0  0  0  0  0  0
  -15.5332    6.2850   35.9890 C   0  0  0  0  0  0  0  0  0  0  0  0
  -15.4623    7.4944   35.0489 C   0  0  0  0  0  0  0  0  0  0  0  0
  -14.1136    7.4866   34.3341 C   0  0  0  0  0  0  0  0  0  0  0  0
  -13.3876    4.2727   37.0822 C   0  0  0  0  0  0  0  0  0  0  0  0
  -14.1773    5.0831   37.7213 N   0  0  0  0  0  0  0  0  0  0  0  0
  -16.7669    6.2822   36.7263 O   0  0  0  0  0  0  0  0  0  0  0  0
  -16.5157    7.4459   34.0792 O   0  0  0  0  0  0  0  0  0  0  0  0
  -13.0411    7.5747   35.2990 O   0  0  0  0  0  0  0  0  0  0  0  0
  -12.4923    4.9354   35.7172 S   0  0  0  0  0  0  0  0  0  0  0  0
  -16.8249    7.0884   37.2625 H   0  0  0  0  0  0  0  0  0  0  0  0
  -16.4295    6.6387   33.5483 H   0  0  0  0  0  0  0  0  0  0  0  0
  -13.9359    8.6364   33.3671 C   0  0  0  0  0  0  0  0  0  0  0  0
  -14.5325    8.3300   32.1020 O   0  0  0  0  0  0  0  0  0  0  0  0
  -15.4825    8.1745   32.2217 H   0  0  0  0  0  0  0  0  0  0  0  0
  -13.2467    2.9934   37.4982 N   0  0  0  0  0  0  0  0  0  0  0  0
  -12.4178    2.7607   37.9756 H   0  0  0  0  0  0  0  0  0  0  0  0
  -15.1415    1.7757   38.4676 C   0  0  0  0  0  0  0  0  0  0  0  0
  -14.2233    1.9339   37.2959 C   0  0  0  0  0  0  0  0  0  0  0  0
 15 14  1  0  0  0
 14  5  1  0  0  0
  5 10  1  0  0  0
  5  4  1  0  0  0
 10  1  1  0  0  0
  4  9  1  0  0  0
  4  3  1  0  0  0
  3  8  1  0  0  0
  3  2  1  0  0  0
  2  7  1  0  0  0
  2  1  1  0  0  0
  7  6  2  0  0  0
  1 11  1  0  0  0
 11  6  1  0  0  0
  6 17  1  0  0  0
 17 20  1  0  0  0
 20 19  1  0  0  0
  8 12  1  0  0  0
  9 13  1  0  0  0
 17 18  1  0  0  0
 15 16  1  0  0  0
M  END
> <minimizedAffinity>
-5.48355

$$$$
5M7S_NHT_A_1001


 20 21  0  0  0  0  0  0  0  0999 V2000
  -14.2835    6.4007   36.7984 C   0  0  0  0  0  0  0  0  0  0  0  0
  -15.7984    6.6083   36.7673 C   0  0  0  0  0  0  0  0  0  0  0  0
  -16.3742    6.9059   35.3821 C   0  0  0  0  0  0  0  0  0  0  0  0
  -15.5454    8.0151   34.7232 C   0  0  0  0  0  0  0  0  0  0  0  0
  -14.0862    7.5714   34.6608 C   0  0  0  0  0  0  0  0  0  0  0  0
  -15.6256    4.3407   37.0275 C   0  0  0  0  0  0  0  0  0  0  0  0
  -16.3459    5.3691   37.3624 N   0  0  0  0  0  0  0  0  0  0  0  0
  -17.7491    7.3038   35.5125 O   0  0  0  0  0  0  0  0  0  0  0  0
  -16.0188    8.2831   33.3978 O   0  0  0  0  0  0  0  0  0  0  0  0
  -13.5831    7.3347   35.9949 O   0  0  0  0  0  0  0  0  0  0  0  0
  -14.0667    4.6644   36.2732 S   0  0  0  0  0  0  0  0  0  0  0  0
  -17.8048    8.0966   36.0685 H   0  0  0  0  0  0  0  0  0  0  0  0
  -15.9419    7.4806   32.8585 H   0  0  0  0  0  0  0  0  0  0  0  0
  -13.1722    8.5900   34.0161 C   0  0  0  0  0  0  0  0  0  0  0  0
  -11.8598    8.5233   34.5851 O   0  0  0  0  0  0  0  0  0  0  0  0
  -11.4874    7.6401   34.4364 H   0  0  0  0  0  0  0  0  0  0  0  0
  -16.0613    3.0894   37.2995 N   0  0  0  0  0  0  0  0  0  0  0  0
  -15.4430    2.3448   37.1187 H   0  0  0  0  0  0  0  0  0  0  0  0
  -17.3046    2.3274   39.2709 C   0  0  0  0  0  0  0  0  0  0  0  0
  -17.3713    2.7565   37.8383 C   0  0  0  0  0  0  0  0  0  0  0  0
 15 14  1  0  0  0
 14  5  1  0  0  0
  5 10  1  0  0  0
  5  4  1  0  0  0
 10  1  1  0  0  0
  4  9  1  0  0  0
  4  3  1  0  0  0
  3  8  1  0  0  0
  3  2  1  0  0  0
  2  7  1  0  0  0
  2  1  1  0  0  0
  7  6  2  0  0  0
  1 11  1  0  0  0
 11  6  1  0  0  0
  6 17  1  0  0  0
 17 20  1  0  0  0
 20 19  1  0  0  0
  8 12  1  0  0  0
  9 13  1  0  0  0
 17 18  1  0  0  0
 15 16  1  0  0  0
M  END
> <minimizedAffinity>
-5.26033

$$$$
5M7S_NHT_A_1001


 20 21  0  0  0  0  0  0  0  0999 V2000
  -13.3015    4.1272   36.5158 C   0  0  0  0  0  0  0  0  0  0  0  0
  -14.5105    4.8504   35.9206 C   0  0  0  0  0  0  0  0  0  0  0  0
  -15.6484    5.1122   36.9083 C   0  0  0  0  0  0  0  0  0  0  0  0
  -15.9646    3.8152   37.6628 C   0  0  0  0  0  0  0  0  0  0  0  0
  -14.6965    3.3251   38.3568 C   0  0  0  0  0  0  0  0  0  0  0  0
  -12.9740    6.5382   36.0946 C   0  0  0  0  0  0  0  0  0  0  0  0
  -13.9450    6.0946   35.3535 N   0  0  0  0  0  0  0  0  0  0  0  0
  -16.8028    5.5817   36.1923 O   0  0  0  0  0  0  0  0  0  0  0  0
  -16.9887    4.0337   38.6406 O   0  0  0  0  0  0  0  0  0  0  0  0
  -13.6659    3.0630   37.3779 O   0  0  0  0  0  0  0  0  0  0  0  0
  -12.3563    5.4557   37.3398 S   0  0  0  0  0  0  0  0  0  0  0  0
  -17.0766    4.9123   35.5459 H   0  0  0  0  0  0  0  0  0  0  0  0
  -16.6875    4.6965   39.2817 H   0  0  0  0  0  0  0  0  0  0  0  0
  -14.8941    2.0494   39.1454 C   0  0  0  0  0  0  0  0  0  0  0  0
  -14.8510    0.9087   38.2808 O   0  0  0  0  0  0  0  0  0  0  0  0
  -13.9865    0.8674   37.8430 H   0  0  0  0  0  0  0  0  0  0  0  0
  -12.4519    7.7649   35.8665 N   0  0  0  0  0  0  0  0  0  0  0  0
  -12.1714    8.2910   36.6499 H   0  0  0  0  0  0  0  0  0  0  0  0
  -10.8321    8.6368   34.2450 C   0  0  0  0  0  0  0  0  0  0  0  0
  -12.2719    8.3686   34.5548 C   0  0  0  0  0  0  0  0  0  0  0  0
 15 14  1  0  0  0
 14  5  1  0  0  0
  5 10  1  0  0  0
  5  4  1  0  0  0
 10  1  1  0  0  0
  4  9  1  0  0  0
  4  3  1  0  0  0
  3  8  1  0  0  0
  3  2  1  0  0  0
  2  7  1  0  0  0
  2  1  1  0  0  0
  7  6  2  0  0  0
  1 11  1  0  0  0
 11  6  1  0  0  0
  6 17  1  0  0  0
 17 20  1  0  0  0
 20 19  1  0  0  0
  8 12  1  0  0  0
  9 13  1  0  0  0
 17 18  1  0  0  0
 15 16  1  0  0  0
M  END
> <minimizedAffinity>
-5.15573

$$$$
5M7S_NHT_A_1001


 20 21  0  0  0  0  0  0  0  0999 V2000
  -15.5274    3.6005   39.3757 C   0  0  0  0  0  0  0  0  0  0  0  0
  -16.0839    4.1243   38.0510 C   0  0  0  0  0  0  0  0  0  0  0  0
  -15.1480    3.9552   36.8533 C   0  0  0  0  0  0  0  0  0  0  0  0
  -13.7542    4.4716   37.2304 C   0  0  0  0  0  0  0  0  0  0  0  0
  -13.2625    3.7143   38.4611 C   0  0  0  0  0  0  0  0  0  0  0  0
  -17.2711    2.1892   38.3437 C   0  0  0  0  0  0  0  0  0  0  0  0
  -17.3644    3.4016   37.8853 N   0  0  0  0  0  0  0  0  0  0  0  0
  -15.6752    4.6803   35.7300 O   0  0  0  0  0  0  0  0  0  0  0  0
  -12.8319    4.2771   36.1516 O   0  0  0  0  0  0  0  0  0  0  0  0
  -14.1635    3.9331   39.5700 O   0  0  0  0  0  0  0  0  0  0  0  0
  -15.8476    1.8032   39.3073 S   0  0  0  0  0  0  0  0  0  0  0  0
  -15.7501    5.6201   35.9580 H   0  0  0  0  0  0  0  0  0  0  0  0
  -12.7647    3.3306   35.9502 H   0  0  0  0  0  0  0  0  0  0  0  0
  -11.8841    4.1366   38.9195 C   0  0  0  0  0  0  0  0  0  0  0  0
  -11.9343    4.6702   40.2474 O   0  0  0  0  0  0  0  0  0  0  0  0
  -12.2650    3.9915   40.8563 H   0  0  0  0  0  0  0  0  0  0  0  0
  -18.2616    1.2977   38.1116 N   0  0  0  0  0  0  0  0  0  0  0  0
  -18.4321    1.0430   37.1760 H   0  0  0  0  0  0  0  0  0  0  0  0
  -19.5990    1.6836   40.1303 C   0  0  0  0  0  0  0  0  0  0  0  0
  -19.0949    0.6853   39.1352 C   0  0  0  0  0  0  0  0  0  0  0  0
 15 14  1  0  0  0
 14  5  1  0  0  0
  5 10  1  0  0  0
  5  4  1  0  0  0
 10  1  1  0  0  0
  4  9  1  0  0  0
  4  3  1  0  0  0
  3  8  1  0  0  0
  3  2  1  0  0  0
  2  7  1  0  0  0
  2  1  1  0  0  0
  7  6  2  0  0  0
  1 11  1  0  0  0
 11  6  1  0  0  0
  6 17  1  0  0  0
 17 20  1  0  0  0
 20 19  1  0  0  0
  8 12  1  0  0  0
  9 13  1  0  0  0
 17 18  1  0  0  0
 15 16  1  0  0  0
M  END
> <minimizedAffinity>
-4.82741

$$$$
