5AM7_38O_A_1000


 33 37  0  0  0  0  0  0  0  0999 V2000
  219.3528    4.8215   26.3279 C   0  0  0  0  0  0  0  0  0  0  0  0
  216.6626    3.8718   22.8604 C   0  0  0  0  0  0  0  0  0  0  0  0
  216.4791    3.0850   23.9392 N   0  0  0  0  0  0  0  0  0  0  0  0
  217.6604    3.0948   26.1554 C   0  0  0  0  0  0  0  0  0  0  0  0
  218.6504    3.7535   26.8792 C   0  0  0  0  0  0  0  0  0  0  0  0
  219.0911    5.2704   25.0338 C   0  0  0  0  0  0  0  0  0  0  0  0
  218.1015    4.6479   24.2651 C   0  0  0  0  0  0  0  0  0  0  0  0
  217.6015    4.8324   23.0286 N   0  0  0  0  0  0  0  0  0  0  0  0
  217.3606    3.5116   24.8644 C   0  0  0  0  0  0  0  0  0  0  0  0
  215.8325    2.3485   24.0322 H   0  0  0  0  0  0  0  0  0  0  0  0
  215.9304    3.8474   21.5659 C   0  0  0  0  0  0  0  0  0  0  0  0
  216.2269    4.9044   20.5654 C   0  0  0  0  0  0  0  0  0  0  0  0
  215.7157    5.8218   18.1685 C   0  0  0  0  0  0  0  0  0  0  0  0
  214.9833    5.6831   16.9824 C   0  0  0  0  0  0  0  0  0  0  0  0
  214.0454    4.6552   16.8417 C   0  0  0  0  0  0  0  0  0  0  0  0
  214.6023    1.9403   22.0497 O   0  0  0  0  0  0  0  0  0  0  0  0
  217.1484    5.8521   20.8369 N   0  0  0  0  0  0  0  0  0  0  0  0
  215.4975    4.8499   19.2665 C   0  0  0  0  0  0  0  0  0  0  0  0
  216.6090    6.8208   18.3296 F   0  0  0  0  0  0  0  0  0  0  0  0
  213.8046    3.7149   17.8498 C   0  0  0  0  0  0  0  0  0  0  0  0
  214.4956    3.7757   19.0640 C   0  0  0  0  0  0  0  0  0  0  0  0
  214.2884    2.8599   20.0233 N   0  0  0  0  0  0  0  0  0  0  0  0
  214.8959    2.8426   21.2284 C   0  0  0  0  0  0  0  0  0  0  0  0
  217.3445    6.5524   20.1734 H   0  0  0  0  0  0  0  0  0  0  0  0
  217.6245    5.8431   21.6986 H   0  0  0  0  0  0  0  0  0  0  0  0
  213.6411    2.1431   19.8324 H   0  0  0  0  0  0  0  0  0  0  0  0
  224.1377    6.4936   28.4449 C   0  0  0  0  0  0  0  0  0  0  0  0
  222.3445    4.9071   28.2951 C   0  0  0  0  0  0  0  0  0  0  0  0
  220.8282    4.7620   28.2854 C   0  0  0  0  0  0  0  0  0  0  0  0
  220.8134    6.7807   26.7113 C   0  0  0  0  0  0  0  0  0  0  0  0
  222.3279    6.8195   26.8846 C   0  0  0  0  0  0  0  0  0  0  0  0
  222.6943    6.3313   28.2204 N   0  0  0  0  0  0  0  0  0  0  0  0
  220.3381    5.4519   27.0968 N   0  0  0  0  0  0  0  0  0  0  0  0
 29 28  1  0  0  0
 29 33  1  0  0  0
 28 32  1  0  0  0
 19 13  1  0  0  0
 32 27  1  0  0  0
 32 31  1  0  0  0
 33 30  1  0  0  0
 33  1  1  0  0  0
 17 12  1  0  0  0
 30 31  1  0  0  0
  6  1  2  0  0  0
  6  7  1  0  0  0
  1  5  1  0  0  0
 13 14  2  0  0  0
 13 18  1  0  0  0
  8  7  1  0  0  0
  8  2  2  0  0  0
  7  9  2  0  0  0
 14 15  1  0  0  0
 12 18  1  0  0  0
 12 11  2  0  0  0
  5  4  2  0  0  0
 18 21  2  0  0  0
  2 11  1  0  0  0
  2  3  1  0  0  0
  9  4  1  0  0  0
  9  3  1  0  0  0
 11 23  1  0  0  0
 15 20  2  0  0  0
 21 20  1  0  0  0
 21 22  1  0  0  0
 23 22  1  0  0  0
 23 16  2  0  0  0
  3 10  1  0  0  0
 17 24  1  0  0  0
 17 25  1  0  0  0
 22 26  1  0  0  0
M  END
> <minimizedAffinity>
-9.39965

$$$$
5AM7_38O_A_1000


 33 37  0  0  0  0  0  0  0  0999 V2000
  215.2763    3.9393   20.3570 C   0  0  0  0  0  0  0  0  0  0  0  0
  217.3083    4.0582   24.3595 C   0  0  0  0  0  0  0  0  0  0  0  0
  216.4907    3.0016   24.1813 N   0  0  0  0  0  0  0  0  0  0  0  0
  215.0748    2.3806   22.2023 C   0  0  0  0  0  0  0  0  0  0  0  0
  214.7329    2.7856   20.9151 C   0  0  0  0  0  0  0  0  0  0  0  0
  216.1813    4.7299   21.0646 C   0  0  0  0  0  0  0  0  0  0  0  0
  216.5640    4.3648   22.3599 C   0  0  0  0  0  0  0  0  0  0  0  0
  217.3985    4.8763   23.2846 N   0  0  0  0  0  0  0  0  0  0  0  0
  215.9779    3.1333   22.9425 C   0  0  0  0  0  0  0  0  0  0  0  0
  216.3058    2.2804   24.8254 H   0  0  0  0  0  0  0  0  0  0  0  0
  218.1468    4.3861   25.5434 C   0  0  0  0  0  0  0  0  0  0  0  0
  219.5375    4.8562   25.3171 C   0  0  0  0  0  0  0  0  0  0  0  0
  221.7446    5.7074   26.4360 C   0  0  0  0  0  0  0  0  0  0  0  0
  222.4283    6.0063   27.6216 C   0  0  0  0  0  0  0  0  0  0  0  0
  221.8168    5.8104   28.8641 C   0  0  0  0  0  0  0  0  0  0  0  0
  216.5197    3.8326   27.1809 O   0  0  0  0  0  0  0  0  0  0  0  0
  220.0105    4.9857   24.0599 N   0  0  0  0  0  0  0  0  0  0  0  0
  220.3542    5.1994   26.5160 C   0  0  0  0  0  0  0  0  0  0  0  0
  222.3271    5.8697   25.2292 F   0  0  0  0  0  0  0  0  0  0  0  0
  220.5073    5.3329   28.9898 C   0  0  0  0  0  0  0  0  0  0  0  0
  219.7505    5.0150   27.8577 C   0  0  0  0  0  0  0  0  0  0  0  0
  218.4847    4.5831   27.9720 N   0  0  0  0  0  0  0  0  0  0  0  0
  217.6821    4.2409   26.9422 C   0  0  0  0  0  0  0  0  0  0  0  0
  220.9323    5.2973   23.9105 H   0  0  0  0  0  0  0  0  0  0  0  0
  219.4337    4.7686   23.2922 H   0  0  0  0  0  0  0  0  0  0  0  0
  218.1117    4.5101   28.8802 H   0  0  0  0  0  0  0  0  0  0  0  0
  214.4075    4.0158   14.9337 C   0  0  0  0  0  0  0  0  0  0  0  0
  215.8202    4.3592   16.8420 C   0  0  0  0  0  0  0  0  0  0  0  0
  215.8847    4.9903   18.2269 C   0  0  0  0  0  0  0  0  0  0  0  0
  213.5438    4.0212   18.5934 C   0  0  0  0  0  0  0  0  0  0  0  0
  213.6222    3.5130   17.1577 C   0  0  0  0  0  0  0  0  0  0  0  0
  214.4397    4.4233   16.3455 N   0  0  0  0  0  0  0  0  0  0  0  0
  214.9019    4.3035   19.0583 N   0  0  0  0  0  0  0  0  0  0  0  0
 29 28  1  0  0  0
 29 33  1  0  0  0
 28 32  1  0  0  0
 19 13  1  0  0  0
 32 27  1  0  0  0
 32 31  1  0  0  0
 33 30  1  0  0  0
 33  1  1  0  0  0
 17 12  1  0  0  0
 30 31  1  0  0  0
  6  1  2  0  0  0
  6  7  1  0  0  0
  1  5  1  0  0  0
 13 14  2  0  0  0
 13 18  1  0  0  0
  8  7  1  0  0  0
  8  2  2  0  0  0
  7  9  2  0  0  0
 14 15  1  0  0  0
 12 18  1  0  0  0
 12 11  2  0  0  0
  5  4  2  0  0  0
 18 21  2  0  0  0
  2 11  1  0  0  0
  2  3  1  0  0  0
  9  4  1  0  0  0
  9  3  1  0  0  0
 11 23  1  0  0  0
 15 20  2  0  0  0
 21 20  1  0  0  0
 21 22  1  0  0  0
 23 22  1  0  0  0
 23 16  2  0  0  0
  3 10  1  0  0  0
 17 24  1  0  0  0
 17 25  1  0  0  0
 22 26  1  0  0  0
M  END
> <minimizedAffinity>
-9.27655

$$$$
5AM7_38O_A_1000


 33 37  0  0  0  0  0  0  0  0999 V2000
  217.7601    4.5666   23.7926 C   0  0  0  0  0  0  0  0  0  0  0  0
  218.8984    5.9945   19.6904 C   0  0  0  0  0  0  0  0  0  0  0  0
  217.9276    5.0597   19.7051 N   0  0  0  0  0  0  0  0  0  0  0  0
  216.8749    3.8659   21.6476 C   0  0  0  0  0  0  0  0  0  0  0  0
  216.8962    3.7789   23.0369 C   0  0  0  0  0  0  0  0  0  0  0  0
  218.6335    5.4699   23.1878 C   0  0  0  0  0  0  0  0  0  0  0  0
  218.6482    5.6018   21.7950 C   0  0  0  0  0  0  0  0  0  0  0  0
  219.3317    6.3624   20.9190 N   0  0  0  0  0  0  0  0  0  0  0  0
  217.7227    4.7570   21.0017 C   0  0  0  0  0  0  0  0  0  0  0  0
  217.4628    4.6761   18.9266 H   0  0  0  0  0  0  0  0  0  0  0  0
  219.4877    6.6937   18.5173 C   0  0  0  0  0  0  0  0  0  0  0  0
  220.9669    6.7358   18.3885 C   0  0  0  0  0  0  0  0  0  0  0  0
  222.9917    7.5150   16.9254 C   0  0  0  0  0  0  0  0  0  0  0  0
  223.4287    8.1792   15.7720 C   0  0  0  0  0  0  0  0  0  0  0  0
  222.5085    8.7648   14.8967 C   0  0  0  0  0  0  0  0  0  0  0  0
  217.4284    7.3824   17.5584 O   0  0  0  0  0  0  0  0  0  0  0  0
  221.7430    6.1409   19.3184 N   0  0  0  0  0  0  0  0  0  0  0  0
  221.5368    7.4232   17.1950 C   0  0  0  0  0  0  0  0  0  0  0  0
  223.8669    6.9631   17.7923 F   0  0  0  0  0  0  0  0  0  0  0  0
  221.1266    8.7047   15.1091 C   0  0  0  0  0  0  0  0  0  0  0  0
  220.6035    8.0563   16.2322 C   0  0  0  0  0  0  0  0  0  0  0  0
  219.2779    7.9718   16.4261 N   0  0  0  0  0  0  0  0  0  0  0  0
  218.6809    7.3795   17.4818 C   0  0  0  0  0  0  0  0  0  0  0  0
  222.7234    6.1691   19.2325 H   0  0  0  0  0  0  0  0  0  0  0  0
  221.3289    5.6786   20.0826 H   0  0  0  0  0  0  0  0  0  0  0  0
  218.6941    8.3743   15.7431 H   0  0  0  0  0  0  0  0  0  0  0  0
  218.8613    3.1596   28.9869 C   0  0  0  0  0  0  0  0  0  0  0  0
  217.8185    2.7334   26.8689 C   0  0  0  0  0  0  0  0  0  0  0  0
  216.9654    3.3551   25.7708 C   0  0  0  0  0  0  0  0  0  0  0  0
  218.4640    5.4171   26.0061 C   0  0  0  0  0  0  0  0  0  0  0  0
  219.1703    4.6699   27.1324 C   0  0  0  0  0  0  0  0  0  0  0  0
  218.2239    3.7794   27.8165 N   0  0  0  0  0  0  0  0  0  0  0  0
  217.7426    4.4432   25.1869 N   0  0  0  0  0  0  0  0  0  0  0  0
 29 28  1  0  0  0
 29 33  1  0  0  0
 28 32  1  0  0  0
 19 13  1  0  0  0
 32 27  1  0  0  0
 32 31  1  0  0  0
 33 30  1  0  0  0
 33  1  1  0  0  0
 17 12  1  0  0  0
 30 31  1  0  0  0
  6  1  2  0  0  0
  6  7  1  0  0  0
  1  5  1  0  0  0
 13 14  2  0  0  0
 13 18  1  0  0  0
  8  7  1  0  0  0
  8  2  2  0  0  0
  7  9  2  0  0  0
 14 15  1  0  0  0
 12 18  1  0  0  0
 12 11  2  0  0  0
  5  4  2  0  0  0
 18 21  2  0  0  0
  2 11  1  0  0  0
  2  3  1  0  0  0
  9  4  1  0  0  0
  9  3  1  0  0  0
 11 23  1  0  0  0
 15 20  2  0  0  0
 21 20  1  0  0  0
 21 22  1  0  0  0
 23 22  1  0  0  0
 23 16  2  0  0  0
  3 10  1  0  0  0
 17 24  1  0  0  0
 17 25  1  0  0  0
 22 26  1  0  0  0
M  END
> <minimizedAffinity>
-8.85564

$$$$
5AM7_38O_A_1000


 33 37  0  0  0  0  0  0  0  0999 V2000
  219.8249    3.6746   27.4712 C   0  0  0  0  0  0  0  0  0  0  0  0
  217.1264    3.7762   23.8836 C   0  0  0  0  0  0  0  0  0  0  0  0
  216.5575    3.2663   24.9939 N   0  0  0  0  0  0  0  0  0  0  0  0
  217.5270    2.9258   27.2855 C   0  0  0  0  0  0  0  0  0  0  0  0
  218.6845    3.1107   28.0364 C   0  0  0  0  0  0  0  0  0  0  0  0
  219.8499    4.0745   26.1355 C   0  0  0  0  0  0  0  0  0  0  0  0
  218.7113    3.9172   25.3376 C   0  0  0  0  0  0  0  0  0  0  0  0
  218.4000    4.2005   24.0586 N   0  0  0  0  0  0  0  0  0  0  0  0
  217.5032    3.3155   25.9522 C   0  0  0  0  0  0  0  0  0  0  0  0
  215.6380    2.9269   25.0860 H   0  0  0  0  0  0  0  0  0  0  0  0
  216.5141    3.9783   22.5432 C   0  0  0  0  0  0  0  0  0  0  0  0
  216.9114    5.1742   21.7570 C   0  0  0  0  0  0  0  0  0  0  0  0
  216.6293    6.4767   19.5049 C   0  0  0  0  0  0  0  0  0  0  0  0
  216.0057    6.5486   18.2525 C   0  0  0  0  0  0  0  0  0  0  0  0
  215.0732    5.5807   17.8656 C   0  0  0  0  0  0  0  0  0  0  0  0
  215.1270    2.0526   22.5935 O   0  0  0  0  0  0  0  0  0  0  0  0
  217.8148    6.0423   22.2580 N   0  0  0  0  0  0  0  0  0  0  0  0
  216.3020    5.3472   20.4076 C   0  0  0  0  0  0  0  0  0  0  0  0
  217.5152    7.4139   19.9033 F   0  0  0  0  0  0  0  0  0  0  0  0
  214.7319    4.4974   18.6831 C   0  0  0  0  0  0  0  0  0  0  0  0
  215.3109    4.3452   19.9469 C   0  0  0  0  0  0  0  0  0  0  0  0
  215.0077    3.2929   20.7233 N   0  0  0  0  0  0  0  0  0  0  0  0
  215.5035    3.0671   21.9582 C   0  0  0  0  0  0  0  0  0  0  0  0
  218.0778    6.8348   21.7365 H   0  0  0  0  0  0  0  0  0  0  0  0
  218.2110    5.8832   23.1452 H   0  0  0  0  0  0  0  0  0  0  0  0
  214.3726    2.6327   20.3629 H   0  0  0  0  0  0  0  0  0  0  0  0
  223.6549    3.1943   31.3793 C   0  0  0  0  0  0  0  0  0  0  0  0
  221.5556    4.0414   30.5853 C   0  0  0  0  0  0  0  0  0  0  0  0
  220.8741    4.7389   29.4150 C   0  0  0  0  0  0  0  0  0  0  0  0
  222.2012    3.1475   27.9117 C   0  0  0  0  0  0  0  0  0  0  0  0
  222.8353    2.6065   29.1887 C   0  0  0  0  0  0  0  0  0  0  0  0
  222.9224    3.6704   30.1973 N   0  0  0  0  0  0  0  0  0  0  0  0
  220.9633    3.8409   28.2685 N   0  0  0  0  0  0  0  0  0  0  0  0
 29 28  1  0  0  0
 29 33  1  0  0  0
 28 32  1  0  0  0
 19 13  1  0  0  0
 32 27  1  0  0  0
 32 31  1  0  0  0
 33 30  1  0  0  0
 33  1  1  0  0  0
 17 12  1  0  0  0
 30 31  1  0  0  0
  6  1  2  0  0  0
  6  7  1  0  0  0
  1  5  1  0  0  0
 13 14  2  0  0  0
 13 18  1  0  0  0
  8  7  1  0  0  0
  8  2  2  0  0  0
  7  9  2  0  0  0
 14 15  1  0  0  0
 12 18  1  0  0  0
 12 11  2  0  0  0
  5  4  2  0  0  0
 18 21  2  0  0  0
  2 11  1  0  0  0
  2  3  1  0  0  0
  9  4  1  0  0  0
  9  3  1  0  0  0
 11 23  1  0  0  0
 15 20  2  0  0  0
 21 20  1  0  0  0
 21 22  1  0  0  0
 23 22  1  0  0  0
 23 16  2  0  0  0
  3 10  1  0  0  0
 17 24  1  0  0  0
 17 25  1  0  0  0
 22 26  1  0  0  0
M  END
> <minimizedAffinity>
-8.80868

$$$$
5AM7_38O_A_1000


 33 37  0  0  0  0  0  0  0  0999 V2000
  215.8226    4.2181   20.7392 C   0  0  0  0  0  0  0  0  0  0  0  0
  218.7011    4.8239   24.1318 C   0  0  0  0  0  0  0  0  0  0  0  0
  217.8309    3.8109   24.3141 N   0  0  0  0  0  0  0  0  0  0  0  0
  215.9890    2.9856   22.8197 C   0  0  0  0  0  0  0  0  0  0  0  0
  215.3810    3.2061   21.5870 C   0  0  0  0  0  0  0  0  0  0  0  0
  216.8878    5.0460   21.0921 C   0  0  0  0  0  0  0  0  0  0  0  0
  217.5387    4.8633   22.3171 C   0  0  0  0  0  0  0  0  0  0  0  0
  218.5749    5.4551   22.9409 N   0  0  0  0  0  0  0  0  0  0  0  0
  217.0585    3.7815   23.2107 C   0  0  0  0  0  0  0  0  0  0  0  0
  217.7717    3.2140   25.0948 H   0  0  0  0  0  0  0  0  0  0  0  0
  219.7933    5.2752   25.0351 C   0  0  0  0  0  0  0  0  0  0  0  0
  219.4292    6.0136   26.2714 C   0  0  0  0  0  0  0  0  0  0  0  0
  220.3168    7.1560   28.4519 C   0  0  0  0  0  0  0  0  0  0  0  0
  221.4248    7.5093   29.2329 C   0  0  0  0  0  0  0  0  0  0  0  0
  222.7217    7.2079   28.8050 C   0  0  0  0  0  0  0  0  0  0  0  0
  221.5855    4.4502   23.7151 O   0  0  0  0  0  0  0  0  0  0  0  0
  218.1325    6.2531   26.5579 N   0  0  0  0  0  0  0  0  0  0  0  0
  220.5372    6.4387   27.1734 C   0  0  0  0  0  0  0  0  0  0  0  0
  219.0595    7.4583   28.8391 F   0  0  0  0  0  0  0  0  0  0  0  0
  222.9795    6.5331   27.6064 C   0  0  0  0  0  0  0  0  0  0  0  0
  221.9317    6.1385   26.7686 C   0  0  0  0  0  0  0  0  0  0  0  0
  222.1720    5.4666   25.6316 N   0  0  0  0  0  0  0  0  0  0  0  0
  221.2311    5.0560   24.7554 C   0  0  0  0  0  0  0  0  0  0  0  0
  217.8917    6.7425   27.3775 H   0  0  0  0  0  0  0  0  0  0  0  0
  217.4272    5.9384   25.9473 H   0  0  0  0  0  0  0  0  0  0  0  0
  223.1102    5.2565   25.4198 H   0  0  0  0  0  0  0  0  0  0  0  0
  214.4373    4.0553   15.4262 C   0  0  0  0  0  0  0  0  0  0  0  0
  215.7068    4.9774   17.2409 C   0  0  0  0  0  0  0  0  0  0  0  0
  215.6091    5.5086   18.6652 C   0  0  0  0  0  0  0  0  0  0  0  0
  214.0855    3.5045   19.1292 C   0  0  0  0  0  0  0  0  0  0  0  0
  214.2422    3.1521   17.6538 C   0  0  0  0  0  0  0  0  0  0  0  0
  214.4227    4.3750   16.8607 N   0  0  0  0  0  0  0  0  0  0  0  0
  215.1791    4.3989   19.5093 N   0  0  0  0  0  0  0  0  0  0  0  0
 29 28  1  0  0  0
 29 33  1  0  0  0
 28 32  1  0  0  0
 19 13  1  0  0  0
 32 27  1  0  0  0
 32 31  1  0  0  0
 33 30  1  0  0  0
 33  1  1  0  0  0
 17 12  1  0  0  0
 30 31  1  0  0  0
  6  1  2  0  0  0
  6  7  1  0  0  0
  1  5  1  0  0  0
 13 14  2  0  0  0
 13 18  1  0  0  0
  8  7  1  0  0  0
  8  2  2  0  0  0
  7  9  2  0  0  0
 14 15  1  0  0  0
 12 18  1  0  0  0
 12 11  2  0  0  0
  5  4  2  0  0  0
 18 21  2  0  0  0
  2 11  1  0  0  0
  2  3  1  0  0  0
  9  4  1  0  0  0
  9  3  1  0  0  0
 11 23  1  0  0  0
 15 20  2  0  0  0
 21 20  1  0  0  0
 21 22  1  0  0  0
 23 22  1  0  0  0
 23 16  2  0  0  0
  3 10  1  0  0  0
 17 24  1  0  0  0
 17 25  1  0  0  0
 22 26  1  0  0  0
M  END
> <minimizedAffinity>
-8.74071

$$$$
5AM7_38O_A_1000


 33 37  0  0  0  0  0  0  0  0999 V2000
  218.6791    3.1019   28.5593 C   0  0  0  0  0  0  0  0  0  0  0  0
  217.9670    4.2393   24.2741 C   0  0  0  0  0  0  0  0  0  0  0  0
  219.2504    4.3443   24.6722 N   0  0  0  0  0  0  0  0  0  0  0  0
  220.2808    3.8808   26.9150 C   0  0  0  0  0  0  0  0  0  0  0  0
  219.9801    3.4458   28.2028 C   0  0  0  0  0  0  0  0  0  0  0  0
  217.6317    3.1797   27.6419 C   0  0  0  0  0  0  0  0  0  0  0  0
  217.8800    3.6045   26.3322 C   0  0  0  0  0  0  0  0  0  0  0  0
  217.1273    3.7744   25.2288 N   0  0  0  0  0  0  0  0  0  0  0  0
  219.2704    3.9676   25.9655 C   0  0  0  0  0  0  0  0  0  0  0  0
  220.0173    4.6368   24.1285 H   0  0  0  0  0  0  0  0  0  0  0  0
  217.3941    4.5079   22.9281 C   0  0  0  0  0  0  0  0  0  0  0  0
  216.3348    3.6011   22.4163 C   0  0  0  0  0  0  0  0  0  0  0  0
  214.6780    3.0968   20.4545 C   0  0  0  0  0  0  0  0  0  0  0  0
  214.2003    3.4615   19.1891 C   0  0  0  0  0  0  0  0  0  0  0  0
  214.7475    4.5550   18.5103 C   0  0  0  0  0  0  0  0  0  0  0  0
  218.7459    6.3966   22.4377 O   0  0  0  0  0  0  0  0  0  0  0  0
  215.9076    2.5676   23.1715 N   0  0  0  0  0  0  0  0  0  0  0  0
  215.7592    3.8999   21.0741 C   0  0  0  0  0  0  0  0  0  0  0  0
  214.1765    2.0315   21.1144 F   0  0  0  0  0  0  0  0  0  0  0  0
  215.7689    5.3421   19.0540 C   0  0  0  0  0  0  0  0  0  0  0  0
  216.3006    5.0525   20.3145 C   0  0  0  0  0  0  0  0  0  0  0  0
  217.2609    5.8209   20.8522 N   0  0  0  0  0  0  0  0  0  0  0  0
  217.8429    5.6149   22.0525 C   0  0  0  0  0  0  0  0  0  0  0  0
  215.2055    1.9669   22.8318 H   0  0  0  0  0  0  0  0  0  0  0  0
  216.2980    2.4144   24.0622 H   0  0  0  0  0  0  0  0  0  0  0  0
  217.5653    6.5973   20.3289 H   0  0  0  0  0  0  0  0  0  0  0  0
  217.4238    0.0911   32.9787 C   0  0  0  0  0  0  0  0  0  0  0  0
  216.7809    1.4280   31.0935 C   0  0  0  0  0  0  0  0  0  0  0  0
  217.0570    2.7347   30.3609 C   0  0  0  0  0  0  0  0  0  0  0  0
  219.5386    2.2042   30.6980 C   0  0  0  0  0  0  0  0  0  0  0  0
  219.0825    0.9660   31.4625 C   0  0  0  0  0  0  0  0  0  0  0  0
  217.8016    1.2304   32.1305 N   0  0  0  0  0  0  0  0  0  0  0  0
  218.4282    2.6688   29.8665 N   0  0  0  0  0  0  0  0  0  0  0  0
 29 28  1  0  0  0
 29 33  1  0  0  0
 28 32  1  0  0  0
 19 13  1  0  0  0
 32 27  1  0  0  0
 32 31  1  0  0  0
 33 30  1  0  0  0
 33  1  1  0  0  0
 17 12  1  0  0  0
 30 31  1  0  0  0
  6  1  2  0  0  0
  6  7  1  0  0  0
  1  5  1  0  0  0
 13 14  2  0  0  0
 13 18  1  0  0  0
  8  7  1  0  0  0
  8  2  2  0  0  0
  7  9  2  0  0  0
 14 15  1  0  0  0
 12 18  1  0  0  0
 12 11  2  0  0  0
  5  4  2  0  0  0
 18 21  2  0  0  0
  2 11  1  0  0  0
  2  3  1  0  0  0
  9  4  1  0  0  0
  9  3  1  0  0  0
 11 23  1  0  0  0
 15 20  2  0  0  0
 21 20  1  0  0  0
 21 22  1  0  0  0
 23 22  1  0  0  0
 23 16  2  0  0  0
  3 10  1  0  0  0
 17 24  1  0  0  0
 17 25  1  0  0  0
 22 26  1  0  0  0
M  END
> <minimizedAffinity>
-8.68327

$$$$
5AM7_38O_A_1000


 33 37  0  0  0  0  0  0  0  0999 V2000
  218.8881    3.8154   26.9665 C   0  0  0  0  0  0  0  0  0  0  0  0
  217.0630    4.0133   22.8685 C   0  0  0  0  0  0  0  0  0  0  0  0
  218.2995    4.5428   22.9536 N   0  0  0  0  0  0  0  0  0  0  0  0
  219.8256    4.7522   24.9370 C   0  0  0  0  0  0  0  0  0  0  0  0
  219.9242    4.4572   26.2939 C   0  0  0  0  0  0  0  0  0  0  0  0
  217.7162    3.4446   26.3076 C   0  0  0  0  0  0  0  0  0  0  0  0
  217.5680    3.7116   24.9422 C   0  0  0  0  0  0  0  0  0  0  0  0
  216.6065    3.4832   24.0276 N   0  0  0  0  0  0  0  0  0  0  0  0
  218.6794    4.3956   24.2376 C   0  0  0  0  0  0  0  0  0  0  0  0
  218.8194    4.9535   22.2254 H   0  0  0  0  0  0  0  0  0  0  0  0
  216.1924    3.8916   21.6687 C   0  0  0  0  0  0  0  0  0  0  0  0
  216.3200    4.9107   20.5957 C   0  0  0  0  0  0  0  0  0  0  0  0
  215.4967    5.6846   18.2354 C   0  0  0  0  0  0  0  0  0  0  0  0
  214.6439    5.4541   17.1481 C   0  0  0  0  0  0  0  0  0  0  0  0
  213.7502    4.3785   17.1607 C   0  0  0  0  0  0  0  0  0  0  0  0
  215.0267    1.9514   22.3841 O   0  0  0  0  0  0  0  0  0  0  0  0
  217.2163    5.9120   20.7184 N   0  0  0  0  0  0  0  0  0  0  0  0
  215.4533    4.7588   19.3925 C   0  0  0  0  0  0  0  0  0  0  0  0
  216.3500    6.7304   18.2494 F   0  0  0  0  0  0  0  0  0  0  0  0
  213.6726    3.4787   18.2298 C   0  0  0  0  0  0  0  0  0  0  0  0
  214.4915    3.6310   19.3531 C   0  0  0  0  0  0  0  0  0  0  0  0
  214.4405    2.7549   20.3688 N   0  0  0  0  0  0  0  0  0  0  0  0
  215.1796    2.8248   21.4961 C   0  0  0  0  0  0  0  0  0  0  0  0
  217.3005    6.5871   20.0068 H   0  0  0  0  0  0  0  0  0  0  0  0
  217.7860    5.9673   21.5194 H   0  0  0  0  0  0  0  0  0  0  0  0
  213.8135    2.0005   20.2848 H   0  0  0  0  0  0  0  0  0  0  0  0
  218.8896    1.3969   31.8984 C   0  0  0  0  0  0  0  0  0  0  0  0
  217.7794    2.6097   30.1516 C   0  0  0  0  0  0  0  0  0  0  0  0
  217.9030    3.8022   29.2119 C   0  0  0  0  0  0  0  0  0  0  0  0
  220.3161    3.0376   28.8304 C   0  0  0  0  0  0  0  0  0  0  0  0
  220.0377    1.9357   29.8472 C   0  0  0  0  0  0  0  0  0  0  0  0
  219.0601    2.4015   30.8392 N   0  0  0  0  0  0  0  0  0  0  0  0
  219.0360    3.5394   28.3308 N   0  0  0  0  0  0  0  0  0  0  0  0
 29 28  1  0  0  0
 29 33  1  0  0  0
 28 32  1  0  0  0
 19 13  1  0  0  0
 32 27  1  0  0  0
 32 31  1  0  0  0
 33 30  1  0  0  0
 33  1  1  0  0  0
 17 12  1  0  0  0
 30 31  1  0  0  0
  6  1  2  0  0  0
  6  7  1  0  0  0
  1  5  1  0  0  0
 13 14  2  0  0  0
 13 18  1  0  0  0
  8  7  1  0  0  0
  8  2  2  0  0  0
  7  9  2  0  0  0
 14 15  1  0  0  0
 12 18  1  0  0  0
 12 11  2  0  0  0
  5  4  2  0  0  0
 18 21  2  0  0  0
  2 11  1  0  0  0
  2  3  1  0  0  0
  9  4  1  0  0  0
  9  3  1  0  0  0
 11 23  1  0  0  0
 15 20  2  0  0  0
 21 20  1  0  0  0
 21 22  1  0  0  0
 23 22  1  0  0  0
 23 16  2  0  0  0
  3 10  1  0  0  0
 17 24  1  0  0  0
 17 25  1  0  0  0
 22 26  1  0  0  0
M  END
> <minimizedAffinity>
-8.62788

$$$$
5AM7_38O_A_1000


 33 37  0  0  0  0  0  0  0  0999 V2000
  216.9477    4.4714   21.2103 C   0  0  0  0  0  0  0  0  0  0  0  0
  217.6025    3.9633   25.6235 C   0  0  0  0  0  0  0  0  0  0  0  0
  216.7018    3.1127   25.0927 N   0  0  0  0  0  0  0  0  0  0  0  0
  215.8911    2.9016   22.7252 C   0  0  0  0  0  0  0  0  0  0  0  0
  216.0527    3.4321   21.4483 C   0  0  0  0  0  0  0  0  0  0  0  0
  217.7140    5.0179   22.2393 C   0  0  0  0  0  0  0  0  0  0  0  0
  217.5953    4.5174   23.5405 C   0  0  0  0  0  0  0  0  0  0  0  0
  218.1761    4.7956   24.7230 N   0  0  0  0  0  0  0  0  0  0  0  0
  216.6384    3.4100   23.7802 C   0  0  0  0  0  0  0  0  0  0  0  0
  216.1935    2.4160   25.5675 H   0  0  0  0  0  0  0  0  0  0  0  0
  218.0714    4.0488   27.0325 C   0  0  0  0  0  0  0  0  0  0  0  0
  219.5322    4.1332   27.2880 C   0  0  0  0  0  0  0  0  0  0  0  0
  221.4033    4.3593   29.1033 C   0  0  0  0  0  0  0  0  0  0  0  0
  221.7231    4.4580   30.4637 C   0  0  0  0  0  0  0  0  0  0  0  0
  220.7173    4.4241   31.4350 C   0  0  0  0  0  0  0  0  0  0  0  0
  215.9218    3.9380   28.0334 O   0  0  0  0  0  0  0  0  0  0  0  0
  220.3994    4.1401   26.2541 N   0  0  0  0  0  0  0  0  0  0  0  0
  219.9802    4.2391   28.7057 C   0  0  0  0  0  0  0  0  0  0  0  0
  222.3627    4.3683   28.1539 F   0  0  0  0  0  0  0  0  0  0  0  0
  219.3612    4.3116   31.1084 C   0  0  0  0  0  0  0  0  0  0  0  0
  218.9528    4.2136   29.7746 C   0  0  0  0  0  0  0  0  0  0  0  0
  217.6516    4.1335   29.4548 N   0  0  0  0  0  0  0  0  0  0  0  0
  217.1625    4.0237   28.2016 C   0  0  0  0  0  0  0  0  0  0  0  0
  221.3675    4.1960   26.4241 H   0  0  0  0  0  0  0  0  0  0  0  0
  220.0640    4.0891   25.3299 H   0  0  0  0  0  0  0  0  0  0  0  0
  217.0016    4.1567   30.1938 H   0  0  0  0  0  0  0  0  0  0  0  0
  216.8555    7.6653   16.7423 C   0  0  0  0  0  0  0  0  0  0  0  0
  215.7835    6.1655   18.2774 C   0  0  0  0  0  0  0  0  0  0  0  0
  215.9350    4.8372   19.0074 C   0  0  0  0  0  0  0  0  0  0  0  0
  218.3419    5.5662   19.4852 C   0  0  0  0  0  0  0  0  0  0  0  0
  218.0360    6.8154   18.6658 C   0  0  0  0  0  0  0  0  0  0  0  0
  217.0527    6.5034   17.6205 N   0  0  0  0  0  0  0  0  0  0  0  0
  217.0750    4.9695   19.9084 N   0  0  0  0  0  0  0  0  0  0  0  0
 29 28  1  0  0  0
 29 33  1  0  0  0
 28 32  1  0  0  0
 19 13  1  0  0  0
 32 27  1  0  0  0
 32 31  1  0  0  0
 33 30  1  0  0  0
 33  1  1  0  0  0
 17 12  1  0  0  0
 30 31  1  0  0  0
  6  1  2  0  0  0
  6  7  1  0  0  0
  1  5  1  0  0  0
 13 14  2  0  0  0
 13 18  1  0  0  0
  8  7  1  0  0  0
  8  2  2  0  0  0
  7  9  2  0  0  0
 14 15  1  0  0  0
 12 18  1  0  0  0
 12 11  2  0  0  0
  5  4  2  0  0  0
 18 21  2  0  0  0
  2 11  1  0  0  0
  2  3  1  0  0  0
  9  4  1  0  0  0
  9  3  1  0  0  0
 11 23  1  0  0  0
 15 20  2  0  0  0
 21 20  1  0  0  0
 21 22  1  0  0  0
 23 22  1  0  0  0
 23 16  2  0  0  0
  3 10  1  0  0  0
 17 24  1  0  0  0
 17 25  1  0  0  0
 22 26  1  0  0  0
M  END
> <minimizedAffinity>
-8.53133

$$$$
5AM7_38O_A_1000


 33 37  0  0  0  0  0  0  0  0999 V2000
  218.1799    4.0229   24.4393 C   0  0  0  0  0  0  0  0  0  0  0  0
  219.6489    5.6410   20.5167 C   0  0  0  0  0  0  0  0  0  0  0  0
  218.3610    5.2439   20.5080 N   0  0  0  0  0  0  0  0  0  0  0  0
  216.9730    4.2491   22.3494 C   0  0  0  0  0  0  0  0  0  0  0  0
  217.0178    3.8704   23.6883 C   0  0  0  0  0  0  0  0  0  0  0  0
  219.3392    4.5596   23.8801 C   0  0  0  0  0  0  0  0  0  0  0  0
  219.3467    4.9625   22.5402 C   0  0  0  0  0  0  0  0  0  0  0  0
  220.2594    5.5144   21.7184 N   0  0  0  0  0  0  0  0  0  0  0  0
  218.1021    4.7948   21.7514 C   0  0  0  0  0  0  0  0  0  0  0  0
  217.7365    5.2755   19.7476 H   0  0  0  0  0  0  0  0  0  0  0  0
  220.4359    6.2430   19.4074 C   0  0  0  0  0  0  0  0  0  0  0  0
  221.0678    7.5693   19.6269 C   0  0  0  0  0  0  0  0  0  0  0  0
  222.5774    9.4448   18.6016 C   0  0  0  0  0  0  0  0  0  0  0  0
  223.3096    9.8992   17.4971 C   0  0  0  0  0  0  0  0  0  0  0  0
  223.3571    9.1489   16.3178 C   0  0  0  0  0  0  0  0  0  0  0  0
  220.0719    4.4931   17.8454 O   0  0  0  0  0  0  0  0  0  0  0  0
  220.9285    8.1956   20.8140 N   0  0  0  0  0  0  0  0  0  0  0  0
  221.8694    8.1455   18.5100 C   0  0  0  0  0  0  0  0  0  0  0  0
  222.5028   10.1664   19.7399 F   0  0  0  0  0  0  0  0  0  0  0  0
  222.7052    7.9179   16.1839 C   0  0  0  0  0  0  0  0  0  0  0  0
  221.9566    7.3869   17.2390 C   0  0  0  0  0  0  0  0  0  0  0  0
  221.3524    6.1936   17.1252 N   0  0  0  0  0  0  0  0  0  0  0  0
  220.6008    5.6065   18.0803 C   0  0  0  0  0  0  0  0  0  0  0  0
  221.3475    9.0747   20.9589 H   0  0  0  0  0  0  0  0  0  0  0  0
  220.4080    7.7736   21.5352 H   0  0  0  0  0  0  0  0  0  0  0  0
  221.4668    5.7075   16.2768 H   0  0  0  0  0  0  0  0  0  0  0  0
  217.8352    3.9408   29.9209 C   0  0  0  0  0  0  0  0  0  0  0  0
  219.0604    4.3367   27.8967 C   0  0  0  0  0  0  0  0  0  0  0  0
  219.4160    3.7455   26.5387 C   0  0  0  0  0  0  0  0  0  0  0  0
  216.9489    3.0839   26.3685 C   0  0  0  0  0  0  0  0  0  0  0  0
  216.7840    3.6673   27.7677 C   0  0  0  0  0  0  0  0  0  0  0  0
  218.0286    3.5058   28.5303 N   0  0  0  0  0  0  0  0  0  0  0  0
  218.1738    3.6284   25.7823 N   0  0  0  0  0  0  0  0  0  0  0  0
 29 28  1  0  0  0
 29 33  1  0  0  0
 28 32  1  0  0  0
 19 13  1  0  0  0
 32 27  1  0  0  0
 32 31  1  0  0  0
 33 30  1  0  0  0
 33  1  1  0  0  0
 17 12  1  0  0  0
 30 31  1  0  0  0
  6  1  2  0  0  0
  6  7  1  0  0  0
  1  5  1  0  0  0
 13 14  2  0  0  0
 13 18  1  0  0  0
  8  7  1  0  0  0
  8  2  2  0  0  0
  7  9  2  0  0  0
 14 15  1  0  0  0
 12 18  1  0  0  0
 12 11  2  0  0  0
  5  4  2  0  0  0
 18 21  2  0  0  0
  2 11  1  0  0  0
  2  3  1  0  0  0
  9  4  1  0  0  0
  9  3  1  0  0  0
 11 23  1  0  0  0
 15 20  2  0  0  0
 21 20  1  0  0  0
 21 22  1  0  0  0
 23 22  1  0  0  0
 23 16  2  0  0  0
  3 10  1  0  0  0
 17 24  1  0  0  0
 17 25  1  0  0  0
 22 26  1  0  0  0
M  END
> <minimizedAffinity>
-8.52054

$$$$
5AM7_38O_A_1000


 33 37  0  0  0  0  0  0  0  0999 V2000
  218.3578    4.5056   27.6830 C   0  0  0  0  0  0  0  0  0  0  0  0
  217.4760    4.3382   23.2832 C   0  0  0  0  0  0  0  0  0  0  0  0
  217.0028    3.2902   23.9862 N   0  0  0  0  0  0  0  0  0  0  0  0
  217.1764    2.7914   26.4414 C   0  0  0  0  0  0  0  0  0  0  0  0
  217.6734    3.2941   27.6407 C   0  0  0  0  0  0  0  0  0  0  0  0
  218.5700    5.2589   26.5287 C   0  0  0  0  0  0  0  0  0  0  0  0
  218.0856    4.8027   25.2979 C   0  0  0  0  0  0  0  0  0  0  0  0
  218.1019    5.2730   24.0363 N   0  0  0  0  0  0  0  0  0  0  0  0
  217.3580    3.5108   25.2668 C   0  0  0  0  0  0  0  0  0  0  0  0
  216.4999    2.5200   23.6352 H   0  0  0  0  0  0  0  0  0  0  0  0
  217.3395    4.6092   21.8271 C   0  0  0  0  0  0  0  0  0  0  0  0
  218.5608    4.9495   21.0533 C   0  0  0  0  0  0  0  0  0  0  0  0
  219.5416    5.5169   18.6945 C   0  0  0  0  0  0  0  0  0  0  0  0
  219.2933    5.7286   17.3321 C   0  0  0  0  0  0  0  0  0  0  0  0
  217.9908    5.6589   16.8274 C   0  0  0  0  0  0  0  0  0  0  0  0
  214.9855    4.3209   21.7244 O   0  0  0  0  0  0  0  0  0  0  0  0
  219.7597    4.9987   21.6707 N   0  0  0  0  0  0  0  0  0  0  0  0
  218.4055    5.1970   19.5916 C   0  0  0  0  0  0  0  0  0  0  0  0
  220.7893    5.6017   19.2025 F   0  0  0  0  0  0  0  0  0  0  0  0
  216.8873    5.3608   17.6347 C   0  0  0  0  0  0  0  0  0  0  0  0
  217.0455    5.1298   19.0047 C   0  0  0  0  0  0  0  0  0  0  0  0
  215.9941    4.8162   19.7782 N   0  0  0  0  0  0  0  0  0  0  0  0
  216.0450    4.5887   21.1076 C   0  0  0  0  0  0  0  0  0  0  0  0
  220.5689    5.2244   21.1573 H   0  0  0  0  0  0  0  0  0  0  0  0
  219.8252    4.8089   22.6345 H   0  0  0  0  0  0  0  0  0  0  0  0
  215.1150    4.7465   19.3405 H   0  0  0  0  0  0  0  0  0  0  0  0
  218.8042    6.7945   32.6563 C   0  0  0  0  0  0  0  0  0  0  0  0
  218.7846    6.9531   30.2627 C   0  0  0  0  0  0  0  0  0  0  0  0
  219.3392    6.3371   28.9847 C   0  0  0  0  0  0  0  0  0  0  0  0
  218.8533    4.0686   30.0667 C   0  0  0  0  0  0  0  0  0  0  0  0
  218.3917    4.8482   31.2933 C   0  0  0  0  0  0  0  0  0  0  0  0
  219.1457    6.1036   31.4048 N   0  0  0  0  0  0  0  0  0  0  0  0
  218.8369    4.9691   28.9138 N   0  0  0  0  0  0  0  0  0  0  0  0
 29 28  1  0  0  0
 29 33  1  0  0  0
 28 32  1  0  0  0
 19 13  1  0  0  0
 32 27  1  0  0  0
 32 31  1  0  0  0
 33 30  1  0  0  0
 33  1  1  0  0  0
 17 12  1  0  0  0
 30 31  1  0  0  0
  6  1  2  0  0  0
  6  7  1  0  0  0
  1  5  1  0  0  0
 13 14  2  0  0  0
 13 18  1  0  0  0
  8  7  1  0  0  0
  8  2  2  0  0  0
  7  9  2  0  0  0
 14 15  1  0  0  0
 12 18  1  0  0  0
 12 11  2  0  0  0
  5  4  2  0  0  0
 18 21  2  0  0  0
  2 11  1  0  0  0
  2  3  1  0  0  0
  9  4  1  0  0  0
  9  3  1  0  0  0
 11 23  1  0  0  0
 15 20  2  0  0  0
 21 20  1  0  0  0
 21 22  1  0  0  0
 23 22  1  0  0  0
 23 16  2  0  0  0
  3 10  1  0  0  0
 17 24  1  0  0  0
 17 25  1  0  0  0
 22 26  1  0  0  0
M  END
> <minimizedAffinity>
-8.47016

$$$$
