4AHR_I2E_A_1218


 15 16  0  0  0  0  0  0  0  0999 V2000
   17.4258  -22.2197   13.0542 C   0  0  0  0  0  0  0  0  0  0  0  0
   17.6436  -23.3622   13.8214 C   0  0  0  0  0  0  0  0  0  0  0  0
   17.1928  -24.5683   13.2872 C   0  0  0  0  0  0  0  0  0  0  0  0
   16.8168  -22.2190   11.8343 C   0  0  0  0  0  0  0  0  0  0  0  0
   16.3736  -23.3756   11.2578 C   0  0  0  0  0  0  0  0  0  0  0  0
   16.5815  -24.5303   12.0210 C   0  0  0  0  0  0  0  0  0  0  0  0
   17.0748  -20.2023   12.4083 C   0  0  0  0  0  0  0  0  0  0  0  0
   17.7982  -20.9337   13.3879 O   0  0  0  0  0  0  0  0  0  0  0  0
   16.7219  -20.9795   11.2746 O   0  0  0  0  0  0  0  0  0  0  0  0
   16.1441  -25.7951   11.4025 C   0  0  0  0  0  0  0  0  0  0  0  0
   16.8417  -26.9984   11.9666 C   0  0  0  0  0  0  0  0  0  0  0  0
   17.6448  -27.4091   10.7390 C   0  0  0  0  0  0  0  0  0  0  0  0
   16.8676  -27.4350    9.7473 O   0  0  0  0  0  0  0  0  0  0  0  0
   18.8990  -27.6306   10.8407 O   0  0  0  0  0  0  0  0  0  0  0  0
   15.9578  -27.2416    9.8599 H   0  0  0  0  0  0  0  0  0  0  0  0
  1  2  1  0  0  0
  1  4  2  0  0  0
  1  8  1  0  0  0
  2  3  2  0  0  0
  3  6  1  0  0  0
  4  5  1  0  0  0
  4  9  1  0  0  0
  5  6  2  0  0  0
  6 10  1  0  0  0
 10 11  1  0  0  0
 11 12  1  0  0  0
 12 13  1  0  0  0
 12 14  2  0  0  0
  7  8  1  0  0  0
  7  9  1  0  0  0
 13 15  1  0  0  0
M  END
> <minimizedAffinity>
-6.76927

$$$$
4AHR_I2E_A_1218


 15 16  0  0  0  0  0  0  0  0999 V2000
   16.1239  -22.8806   11.2687 C   0  0  0  0  0  0  0  0  0  0  0  0
   15.3674  -23.9323   10.7559 C   0  0  0  0  0  0  0  0  0  0  0  0
   15.7592  -25.2194   11.1208 C   0  0  0  0  0  0  0  0  0  0  0  0
   17.1969  -23.0386   12.0950 C   0  0  0  0  0  0  0  0  0  0  0  0
   17.6106  -24.2768   12.4977 C   0  0  0  0  0  0  0  0  0  0  0  0
   16.8621  -25.3426   11.9850 C   0  0  0  0  0  0  0  0  0  0  0  0
   17.1166  -20.9982   11.5536 C   0  0  0  0  0  0  0  0  0  0  0  0
   15.9053  -21.5370   11.0435 O   0  0  0  0  0  0  0  0  0  0  0  0
   17.7733  -21.8612   12.4690 O   0  0  0  0  0  0  0  0  0  0  0  0
   17.2679  -26.6865   12.4355 C   0  0  0  0  0  0  0  0  0  0  0  0
   17.1882  -27.7202   11.3502 C   0  0  0  0  0  0  0  0  0  0  0  0
   18.6565  -27.7596   10.9463 C   0  0  0  0  0  0  0  0  0  0  0  0
   18.7213  -27.9897    9.7090 O   0  0  0  0  0  0  0  0  0  0  0  0
   19.5651  -27.5465   11.8189 O   0  0  0  0  0  0  0  0  0  0  0  0
   17.9361  -28.1246    9.2158 H   0  0  0  0  0  0  0  0  0  0  0  0
  1  2  1  0  0  0
  1  4  2  0  0  0
  1  8  1  0  0  0
  2  3  2  0  0  0
  3  6  1  0  0  0
  4  5  1  0  0  0
  4  9  1  0  0  0
  5  6  2  0  0  0
  6 10  1  0  0  0
 10 11  1  0  0  0
 11 12  1  0  0  0
 12 13  1  0  0  0
 12 14  2  0  0  0
  7  8  1  0  0  0
  7  9  1  0  0  0
 13 15  1  0  0  0
M  END
> <minimizedAffinity>
-6.64417

$$$$
4AHR_I2E_A_1218


 15 16  0  0  0  0  0  0  0  0999 V2000
   16.7804  -26.4456   11.5992 C   0  0  0  0  0  0  0  0  0  0  0  0
   15.7989  -25.6201   11.0548 C   0  0  0  0  0  0  0  0  0  0  0  0
   15.8737  -24.2656   11.3757 C   0  0  0  0  0  0  0  0  0  0  0  0
   17.7909  -26.0089   12.4037 C   0  0  0  0  0  0  0  0  0  0  0  0
   17.9204  -24.6894   12.7334 C   0  0  0  0  0  0  0  0  0  0  0  0
   16.9372  -23.8499   12.1971 C   0  0  0  0  0  0  0  0  0  0  0  0
   17.8565  -28.1205   12.4036 C   0  0  0  0  0  0  0  0  0  0  0  0
   16.8981  -27.8063   11.4033 O   0  0  0  0  0  0  0  0  0  0  0  0
   18.6311  -27.0028   12.8096 O   0  0  0  0  0  0  0  0  0  0  0  0
   17.0780  -22.4161   12.5097 C   0  0  0  0  0  0  0  0  0  0  0  0
   18.2985  -21.7964   11.8939 C   0  0  0  0  0  0  0  0  0  0  0  0
   17.9317  -20.3270   12.0577 C   0  0  0  0  0  0  0  0  0  0  0  0
   18.9673  -19.6358   11.8625 O   0  0  0  0  0  0  0  0  0  0  0  0
   16.7263  -19.9948   12.3203 O   0  0  0  0  0  0  0  0  0  0  0  0
   19.7838  -20.0569   11.6785 H   0  0  0  0  0  0  0  0  0  0  0  0
  1  2  1  0  0  0
  1  4  2  0  0  0
  1  8  1  0  0  0
  2  3  2  0  0  0
  3  6  1  0  0  0
  4  5  1  0  0  0
  4  9  1  0  0  0
  5  6  2  0  0  0
  6 10  1  0  0  0
 10 11  1  0  0  0
 11 12  1  0  0  0
 12 13  1  0  0  0
 12 14  2  0  0  0
  7  8  1  0  0  0
  7  9  1  0  0  0
 13 15  1  0  0  0
M  END
> <minimizedAffinity>
-6.63375

$$$$
4AHR_I2E_A_1218


 15 16  0  0  0  0  0  0  0  0999 V2000
   16.6018  -22.0247   11.7486 C   0  0  0  0  0  0  0  0  0  0  0  0
   17.4732  -21.8644   12.8239 C   0  0  0  0  0  0  0  0  0  0  0  0
   17.7839  -23.0116   13.5522 C   0  0  0  0  0  0  0  0  0  0  0  0
   16.0557  -23.2167   11.3744 C   0  0  0  0  0  0  0  0  0  0  0  0
   16.3421  -24.3734   12.0426 C   0  0  0  0  0  0  0  0  0  0  0  0
   17.2124  -24.2251   13.1288 C   0  0  0  0  0  0  0  0  0  0  0  0
   15.1196  -21.7097   10.2274 C   0  0  0  0  0  0  0  0  0  0  0  0
   16.1727  -21.0292   10.8950 O   0  0  0  0  0  0  0  0  0  0  0  0
   15.2366  -23.1227   10.2887 O   0  0  0  0  0  0  0  0  0  0  0  0
   17.5646  -25.4661   13.8424 C   0  0  0  0  0  0  0  0  0  0  0  0
   18.9978  -25.5034   14.2865 C   0  0  0  0  0  0  0  0  0  0  0  0
   18.7825  -25.5329   15.7942 C   0  0  0  0  0  0  0  0  0  0  0  0
   19.8073  -25.0548   16.3505 O   0  0  0  0  0  0  0  0  0  0  0  0
   17.6821  -25.9700   16.2741 O   0  0  0  0  0  0  0  0  0  0  0  0
   20.5368  -24.7792   15.8311 H   0  0  0  0  0  0  0  0  0  0  0  0
  1  2  1  0  0  0
  1  4  2  0  0  0
  1  8  1  0  0  0
  2  3  2  0  0  0
  3  6  1  0  0  0
  4  5  1  0  0  0
  4  9  1  0  0  0
  5  6  2  0  0  0
  6 10  1  0  0  0
 10 11  1  0  0  0
 11 12  1  0  0  0
 12 13  1  0  0  0
 12 14  2  0  0  0
  7  8  1  0  0  0
  7  9  1  0  0  0
 13 15  1  0  0  0
M  END
> <minimizedAffinity>
-6.46589

$$$$
4AHR_I2E_A_1218


 15 16  0  0  0  0  0  0  0  0999 V2000
   16.8478  -22.3230   11.6616 C   0  0  0  0  0  0  0  0  0  0  0  0
   17.8677  -22.7998   12.4824 C   0  0  0  0  0  0  0  0  0  0  0  0
   17.9292  -24.1806   12.6639 C   0  0  0  0  0  0  0  0  0  0  0  0
   15.9330  -23.1162   11.0348 C   0  0  0  0  0  0  0  0  0  0  0  0
   15.9604  -24.4760   11.1643 C   0  0  0  0  0  0  0  0  0  0  0  0
   16.9772  -24.9677   11.9910 C   0  0  0  0  0  0  0  0  0  0  0  0
   15.3261  -21.1128   10.7506 C   0  0  0  0  0  0  0  0  0  0  0  0
   16.6129  -21.0015   11.3418 O   0  0  0  0  0  0  0  0  0  0  0  0
   15.0350  -22.4201   10.2814 O   0  0  0  0  0  0  0  0  0  0  0  0
   17.0487  -26.4349   12.1162 C   0  0  0  0  0  0  0  0  0  0  0  0
   16.8438  -27.1478   10.8114 C   0  0  0  0  0  0  0  0  0  0  0  0
   18.2018  -27.8275   10.6921 C   0  0  0  0  0  0  0  0  0  0  0  0
   18.1176  -28.7307    9.8172 O   0  0  0  0  0  0  0  0  0  0  0  0
   19.1833  -27.4236   11.4034 O   0  0  0  0  0  0  0  0  0  0  0  0
   17.3005  -28.8927    9.3882 H   0  0  0  0  0  0  0  0  0  0  0  0
  1  2  1  0  0  0
  1  4  2  0  0  0
  1  8  1  0  0  0
  2  3  2  0  0  0
  3  6  1  0  0  0
  4  5  1  0  0  0
  4  9  1  0  0  0
  5  6  2  0  0  0
  6 10  1  0  0  0
 10 11  1  0  0  0
 11 12  1  0  0  0
 12 13  1  0  0  0
 12 14  2  0  0  0
  7  8  1  0  0  0
  7  9  1  0  0  0
 13 15  1  0  0  0
M  END
> <minimizedAffinity>
-6.37415

$$$$
4AHR_I2E_A_1218


 15 16  0  0  0  0  0  0  0  0999 V2000
   15.7210  -23.3597   11.0337 C   0  0  0  0  0  0  0  0  0  0  0  0
   15.4024  -24.7027   10.8438 C   0  0  0  0  0  0  0  0  0  0  0  0
   16.1731  -25.6319   11.5409 C   0  0  0  0  0  0  0  0  0  0  0  0
   16.7175  -22.9155   11.8514 C   0  0  0  0  0  0  0  0  0  0  0  0
   17.4895  -23.7831   12.5709 C   0  0  0  0  0  0  0  0  0  0  0  0
   17.1831  -25.1361   12.3849 C   0  0  0  0  0  0  0  0  0  0  0  0
   16.0007  -21.2470   10.7718 C   0  0  0  0  0  0  0  0  0  0  0  0
   15.0831  -22.2832   10.4522 O   0  0  0  0  0  0  0  0  0  0  0  0
   16.8356  -21.5576   11.8766 O   0  0  0  0  0  0  0  0  0  0  0  0
   17.9794  -26.0890   13.1795 C   0  0  0  0  0  0  0  0  0  0  0  0
   19.3611  -25.5896   13.4861 C   0  0  0  0  0  0  0  0  0  0  0  0
   19.3958  -25.8786   14.9814 C   0  0  0  0  0  0  0  0  0  0  0  0
   19.0143  -24.8453   15.5938 O   0  0  0  0  0  0  0  0  0  0  0  0
   19.7461  -27.0334   15.4011 O   0  0  0  0  0  0  0  0  0  0  0  0
   18.7932  -24.0713   15.1143 H   0  0  0  0  0  0  0  0  0  0  0  0
  1  2  1  0  0  0
  1  4  2  0  0  0
  1  8  1  0  0  0
  2  3  2  0  0  0
  3  6  1  0  0  0
  4  5  1  0  0  0
  4  9  1  0  0  0
  5  6  2  0  0  0
  6 10  1  0  0  0
 10 11  1  0  0  0
 11 12  1  0  0  0
 12 13  1  0  0  0
 12 14  2  0  0  0
  7  8  1  0  0  0
  7  9  1  0  0  0
 13 15  1  0  0  0
M  END
> <minimizedAffinity>
-6.32454

$$$$
4AHR_I2E_A_1218


 15 16  0  0  0  0  0  0  0  0999 V2000
   17.7621  -25.9728   13.5904 C   0  0  0  0  0  0  0  0  0  0  0  0
   17.3093  -26.5672   12.4144 C   0  0  0  0  0  0  0  0  0  0  0  0
   16.5838  -25.7556   11.5437 C   0  0  0  0  0  0  0  0  0  0  0  0
   17.5454  -24.6687   13.9240 C   0  0  0  0  0  0  0  0  0  0  0  0
   16.8568  -23.8262   13.0978 C   0  0  0  0  0  0  0  0  0  0  0  0
   16.3916  -24.4126   11.9150 C   0  0  0  0  0  0  0  0  0  0  0  0
   18.4046  -25.6127   15.6073 C   0  0  0  0  0  0  0  0  0  0  0  0
   18.5022  -26.5881   14.5792 O   0  0  0  0  0  0  0  0  0  0  0  0
   18.0896  -24.3164   15.1232 O   0  0  0  0  0  0  0  0  0  0  0  0
   15.6773  -23.5129   10.9910 C   0  0  0  0  0  0  0  0  0  0  0  0
   16.0855  -22.0758   11.1355 C   0  0  0  0  0  0  0  0  0  0  0  0
   15.0632  -21.4397   10.2023 C   0  0  0  0  0  0  0  0  0  0  0  0
   14.4959  -20.4980   10.8185 O   0  0  0  0  0  0  0  0  0  0  0  0
   14.9314  -21.8736    9.0079 O   0  0  0  0  0  0  0  0  0  0  0  0
   14.7218  -20.3183   11.7099 H   0  0  0  0  0  0  0  0  0  0  0  0
  1  2  1  0  0  0
  1  4  2  0  0  0
  1  8  1  0  0  0
  2  3  2  0  0  0
  3  6  1  0  0  0
  4  5  1  0  0  0
  4  9  1  0  0  0
  5  6  2  0  0  0
  6 10  1  0  0  0
 10 11  1  0  0  0
 11 12  1  0  0  0
 12 13  1  0  0  0
 12 14  2  0  0  0
  7  8  1  0  0  0
  7  9  1  0  0  0
 13 15  1  0  0  0
M  END
> <minimizedAffinity>
-6.22449

$$$$
4AHR_I2E_A_1218


 15 16  0  0  0  0  0  0  0  0999 V2000
   17.7307  -27.8972   10.7214 C   0  0  0  0  0  0  0  0  0  0  0  0
   16.6556  -27.0795   10.3798 C   0  0  0  0  0  0  0  0  0  0  0  0
   16.4231  -25.9779   11.2019 C   0  0  0  0  0  0  0  0  0  0  0  0
   18.5530  -27.6788   11.7868 C   0  0  0  0  0  0  0  0  0  0  0  0
   18.3802  -26.6042   12.6125 C   0  0  0  0  0  0  0  0  0  0  0  0
   17.2998  -25.7774   12.2834 C   0  0  0  0  0  0  0  0  0  0  0  0
   19.0473  -29.5719   10.9901 C   0  0  0  0  0  0  0  0  0  0  0  0
   18.1406  -29.0263   10.0424 O   0  0  0  0  0  0  0  0  0  0  0  0
   19.5373  -28.6133   11.9146 O   0  0  0  0  0  0  0  0  0  0  0  0
   17.1162  -24.5910   13.1391 C   0  0  0  0  0  0  0  0  0  0  0  0
   17.4880  -23.3081   12.4545 C   0  0  0  0  0  0  0  0  0  0  0  0
   17.4961  -22.3826   13.6644 C   0  0  0  0  0  0  0  0  0  0  0  0
   17.2611  -23.0722   14.6927 O   0  0  0  0  0  0  0  0  0  0  0  0
   17.7449  -21.1383   13.5154 O   0  0  0  0  0  0  0  0  0  0  0  0
   17.0968  -23.9912   14.6130 H   0  0  0  0  0  0  0  0  0  0  0  0
  1  2  1  0  0  0
  1  4  2  0  0  0
  1  8  1  0  0  0
  2  3  2  0  0  0
  3  6  1  0  0  0
  4  5  1  0  0  0
  4  9  1  0  0  0
  5  6  2  0  0  0
  6 10  1  0  0  0
 10 11  1  0  0  0
 11 12  1  0  0  0
 12 13  1  0  0  0
 12 14  2  0  0  0
  7  8  1  0  0  0
  7  9  1  0  0  0
 13 15  1  0  0  0
M  END
> <minimizedAffinity>
-6.12250

$$$$
4AHR_I2E_A_1218


 15 16  0  0  0  0  0  0  0  0999 V2000
   17.5695  -23.0958   13.3161 C   0  0  0  0  0  0  0  0  0  0  0  0
   17.9338  -24.3169   13.8794 C   0  0  0  0  0  0  0  0  0  0  0  0
   17.5248  -25.4642   13.2014 C   0  0  0  0  0  0  0  0  0  0  0  0
   16.8578  -22.9655   12.1604 C   0  0  0  0  0  0  0  0  0  0  0  0
   16.4490  -24.0572   11.4478 C   0  0  0  0  0  0  0  0  0  0  0  0
   16.8041  -25.2906   12.0060 C   0  0  0  0  0  0  0  0  0  0  0  0
   17.0212  -21.0414   13.0171 C   0  0  0  0  0  0  0  0  0  0  0  0
   17.8775  -21.8466   13.8148 O   0  0  0  0  0  0  0  0  0  0  0  0
   16.6267  -21.6693   11.8071 O   0  0  0  0  0  0  0  0  0  0  0  0
   16.4052  -26.4822   11.2349 C   0  0  0  0  0  0  0  0  0  0  0  0
   17.1812  -27.7116   11.6077 C   0  0  0  0  0  0  0  0  0  0  0  0
   17.9730  -27.8968   10.3196 C   0  0  0  0  0  0  0  0  0  0  0  0
   19.1921  -27.7008   10.5719 O   0  0  0  0  0  0  0  0  0  0  0  0
   17.3715  -28.2263    9.2416 O   0  0  0  0  0  0  0  0  0  0  0  0
   19.4586  -27.4602   11.4374 H   0  0  0  0  0  0  0  0  0  0  0  0
  1  2  1  0  0  0
  1  4  2  0  0  0
  1  8  1  0  0  0
  2  3  2  0  0  0
  3  6  1  0  0  0
  4  5  1  0  0  0
  4  9  1  0  0  0
  5  6  2  0  0  0
  6 10  1  0  0  0
 10 11  1  0  0  0
 11 12  1  0  0  0
 12 13  1  0  0  0
 12 14  2  0  0  0
  7  8  1  0  0  0
  7  9  1  0  0  0
 13 15  1  0  0  0
M  END
> <minimizedAffinity>
-6.11888

$$$$
4AHR_I2E_A_1218


 15 16  0  0  0  0  0  0  0  0999 V2000
   18.3809  -26.3758   14.0664 C   0  0  0  0  0  0  0  0  0  0  0  0
   18.5004  -25.4165   15.0698 C   0  0  0  0  0  0  0  0  0  0  0  0
   18.1640  -24.1081   14.7260 C   0  0  0  0  0  0  0  0  0  0  0  0
   17.9552  -26.1112   12.7984 C   0  0  0  0  0  0  0  0  0  0  0  0
   17.5957  -24.8500   12.4155 C   0  0  0  0  0  0  0  0  0  0  0  0
   17.7164  -23.8756   13.4130 C   0  0  0  0  0  0  0  0  0  0  0  0
   18.6369  -28.1106   12.8273 C   0  0  0  0  0  0  0  0  0  0  0  0
   18.6507  -27.7230   14.1939 O   0  0  0  0  0  0  0  0  0  0  0  0
   17.9171  -27.2130   11.9965 O   0  0  0  0  0  0  0  0  0  0  0  0
   17.2991  -22.5137   13.0330 C   0  0  0  0  0  0  0  0  0  0  0  0
   18.0201  -21.9928   11.8241 C   0  0  0  0  0  0  0  0  0  0  0  0
   17.9105  -20.4992   12.1028 C   0  0  0  0  0  0  0  0  0  0  0  0
   18.9680  -19.9426   11.7027 O   0  0  0  0  0  0  0  0  0  0  0  0
   16.8494  -20.0243   12.6327 O   0  0  0  0  0  0  0  0  0  0  0  0
   19.6576  -20.4579   11.3326 H   0  0  0  0  0  0  0  0  0  0  0  0
  1  2  1  0  0  0
  1  4  2  0  0  0
  1  8  1  0  0  0
  2  3  2  0  0  0
  3  6  1  0  0  0
  4  5  1  0  0  0
  4  9  1  0  0  0
  5  6  2  0  0  0
  6 10  1  0  0  0
 10 11  1  0  0  0
 11 12  1  0  0  0
 12 13  1  0  0  0
 12 14  2  0  0  0
  7  8  1  0  0  0
  7  9  1  0  0  0
 13 15  1  0  0  0
M  END
> <minimizedAffinity>
-6.06377

$$$$
