5IME_6BZ_A_601


 35 38  0  0  0  0  0  0  0  0999 V2000
   17.5431  -17.6780   11.6747 C   0  0  0  0  0  0  0  0  0  0  0  0
   17.5385  -18.4203   12.8253 C   0  0  0  0  0  0  0  0  0  0  0  0
   16.4797  -18.2601   13.7525 C   0  0  0  0  0  0  0  0  0  0  0  0
   16.4394  -19.0046   14.9413 C   0  0  0  0  0  0  0  0  0  0  0  0
   15.4351  -18.8178   15.7746 N   0  0  0  0  0  0  0  0  0  0  0  0
   14.4717  -17.9438   15.5056 C   0  0  0  0  0  0  0  0  0  0  0  0
   14.4653  -17.2187   14.3981 N   0  0  0  0  0  0  0  0  0  0  0  0
   15.4434  -17.3374   13.5012 C   0  0  0  0  0  0  0  0  0  0  0  0
   15.4503  -16.5911   12.3458 N   0  0  0  0  0  0  0  0  0  0  0  0
   16.4447  -16.7365   11.4371 C   0  0  0  0  0  0  0  0  0  0  0  0
   16.4336  -16.0721   10.4139 O   0  0  0  0  0  0  0  0  0  0  0  0
   19.6122  -18.8941    8.7574 C   0  0  0  0  0  0  0  0  0  0  0  0
   19.7944  -17.0302   10.8041 C   0  0  0  0  0  0  0  0  0  0  0  0
   20.7471  -18.0909    8.8634 C   0  0  0  0  0  0  0  0  0  0  0  0
   20.8282  -17.1649    9.9000 C   0  0  0  0  0  0  0  0  0  0  0  0
   18.6525  -17.8285   10.6968 C   0  0  0  0  0  0  0  0  0  0  0  0
   18.5695  -18.7625    9.6626 C   0  0  0  0  0  0  0  0  0  0  0  0
   17.1564  -19.7584    9.5160 Cl  0  0  0  0  0  0  0  0  0  0  0  0
   23.0142  -18.6866    8.4160 C   0  0  0  0  0  0  0  0  0  0  0  0
   24.0707  -18.8338    7.5786 C   0  0  0  0  0  0  0  0  0  0  0  0
   21.7081  -17.9164    6.6432 C   0  0  0  0  0  0  0  0  0  0  0  0
   22.7428  -17.7463    4.3325 C   0  0  0  0  0  0  0  0  0  0  0  0
   22.8338  -18.0825    5.7991 C   0  0  0  0  0  0  0  0  0  0  0  0
   20.6611  -17.4981    6.1796 O   0  0  0  0  0  0  0  0  0  0  0  0
   21.8169  -18.2260    7.9586 N   0  0  0  0  0  0  0  0  0  0  0  0
   23.9648  -18.5311    6.2886 N   0  0  0  0  0  0  0  0  0  0  0  0
   13.4463  -17.7955   16.4219 N   0  0  0  0  0  0  0  0  0  0  0  0
   13.0970  -16.4774   16.9556 C   0  0  0  0  0  0  0  0  0  0  0  0
   12.9438  -18.5879   16.7197 H   0  0  0  0  0  0  0  0  0  0  0  0
   14.3599  -15.6419   12.0827 C   0  0  0  0  0  0  0  0  0  0  0  0
   14.6712  -14.2426   12.6361 C   0  0  0  0  0  0  0  0  0  0  0  0
   14.7634  -13.2077   11.5108 C   0  0  0  0  0  0  0  0  0  0  0  0
   16.1301  -13.1701   10.9689 N   0  0  0  0  0  0  0  0  0  0  0  0
   16.7824  -12.9121   11.7094 H   0  0  0  0  0  0  0  0  0  0  0  0
   16.1791  -12.4820   10.2176 H   0  0  0  0  0  0  0  0  0  0  0  0
 27 28  1  0  0  0
 27  6  1  0  0  0
  5  6  2  0  0  0
  5  4  1  0  0  0
  6  7  1  0  0  0
  4  3  2  0  0  0
  7  8  2  0  0  0
  3  8  1  0  0  0
  3  2  1  0  0  0
  8  9  1  0  0  0
  2  1  2  0  0  0
  9 30  1  0  0  0
  9 10  1  0  0  0
  1 10  1  0  0  0
  1 16  1  0  0  0
 31 30  1  0  0  0
 31 32  1  0  0  0
 10 11  2  0  0  0
 16 13  2  0  0  0
 16 17  1  0  0  0
 18 17  1  0  0  0
 32 33  1  0  0  0
 13 15  1  0  0  0
 17 12  2  0  0  0
 15 14  2  0  0  0
 12 14  1  0  0  0
 14 25  1  0  0  0
 19 25  1  0  0  0
 19 20  2  0  0  0
 25 21  1  0  0  0
 20 26  1  0  0  0
 21 24  2  0  0  0
 21 23  1  0  0  0
 26 23  2  0  0  0
 23 22  1  0  0  0
 33 34  1  0  0  0
 33 35  1  0  0  0
 27 29  1  0  0  0
M  END
> <minimizedAffinity>
-9.59478

$$$$
5IME_6BZ_A_601


 35 38  0  0  0  0  0  0  0  0999 V2000
   17.1465  -17.5467   11.2908 C   0  0  0  0  0  0  0  0  0  0  0  0
   16.2196  -16.5804   11.0043 C   0  0  0  0  0  0  0  0  0  0  0  0
   15.0928  -16.4249   11.8485 C   0  0  0  0  0  0  0  0  0  0  0  0
   14.1230  -15.4445   11.5887 C   0  0  0  0  0  0  0  0  0  0  0  0
   13.0903  -15.3406   12.4014 N   0  0  0  0  0  0  0  0  0  0  0  0
   12.9582  -16.1433   13.4515 C   0  0  0  0  0  0  0  0  0  0  0  0
   13.8458  -17.0826   13.7384 N   0  0  0  0  0  0  0  0  0  0  0  0
   14.9184  -17.2632   12.9689 C   0  0  0  0  0  0  0  0  0  0  0  0
   15.8493  -18.2347   13.2544 N   0  0  0  0  0  0  0  0  0  0  0  0
   16.9425  -18.3937   12.4699 C   0  0  0  0  0  0  0  0  0  0  0  0
   17.7628  -19.2555   12.7397 O   0  0  0  0  0  0  0  0  0  0  0  0
   19.4566  -18.8881    8.6198 C   0  0  0  0  0  0  0  0  0  0  0  0
   19.4401  -16.8911   10.5453 C   0  0  0  0  0  0  0  0  0  0  0  0
   20.5605  -18.0469    8.7543 C   0  0  0  0  0  0  0  0  0  0  0  0
   20.5414  -17.0538    9.7300 C   0  0  0  0  0  0  0  0  0  0  0  0
   18.3291  -17.7277   10.4086 C   0  0  0  0  0  0  0  0  0  0  0  0
   18.3463  -18.7287    9.4358 C   0  0  0  0  0  0  0  0  0  0  0  0
   16.9728  -19.7729    9.2533 Cl  0  0  0  0  0  0  0  0  0  0  0  0
   22.8485  -18.6756    8.5004 C   0  0  0  0  0  0  0  0  0  0  0  0
   23.9670  -18.8486    7.7534 C   0  0  0  0  0  0  0  0  0  0  0  0
   21.6992  -17.9198    6.6164 C   0  0  0  0  0  0  0  0  0  0  0  0
   22.9184  -17.7994    4.3944 C   0  0  0  0  0  0  0  0  0  0  0  0
   22.8868  -18.1125    5.8685 C   0  0  0  0  0  0  0  0  0  0  0  0
   20.6982  -17.4973    6.0635 O   0  0  0  0  0  0  0  0  0  0  0  0
   21.6978  -18.2090    7.9409 N   0  0  0  0  0  0  0  0  0  0  0  0
   23.9691  -18.5659    6.4545 N   0  0  0  0  0  0  0  0  0  0  0  0
   11.8511  -15.9822   14.2648 N   0  0  0  0  0  0  0  0  0  0  0  0
   12.0001  -15.6956   15.6929 C   0  0  0  0  0  0  0  0  0  0  0  0
   10.9494  -16.0615   13.8776 H   0  0  0  0  0  0  0  0  0  0  0  0
   15.6695  -19.0954   14.4316 C   0  0  0  0  0  0  0  0  0  0  0  0
   16.4773  -18.5931   15.6384 C   0  0  0  0  0  0  0  0  0  0  0  0
   15.5577  -18.2029   16.7993 C   0  0  0  0  0  0  0  0  0  0  0  0
   14.1677  -18.5693   16.4888 N   0  0  0  0  0  0  0  0  0  0  0  0
   13.8659  -18.0766   15.6482 H   0  0  0  0  0  0  0  0  0  0  0  0
   13.5651  -18.3098   17.2698 H   0  0  0  0  0  0  0  0  0  0  0  0
 27 28  1  0  0  0
 27  6  1  0  0  0
  5  6  2  0  0  0
  5  4  1  0  0  0
  6  7  1  0  0  0
  4  3  2  0  0  0
  7  8  2  0  0  0
  3  8  1  0  0  0
  3  2  1  0  0  0
  8  9  1  0  0  0
  2  1  2  0  0  0
  9 30  1  0  0  0
  9 10  1  0  0  0
  1 10  1  0  0  0
  1 16  1  0  0  0
 31 30  1  0  0  0
 31 32  1  0  0  0
 10 11  2  0  0  0
 16 13  2  0  0  0
 16 17  1  0  0  0
 18 17  1  0  0  0
 32 33  1  0  0  0
 13 15  1  0  0  0
 17 12  2  0  0  0
 15 14  2  0  0  0
 12 14  1  0  0  0
 14 25  1  0  0  0
 19 25  1  0  0  0
 19 20  2  0  0  0
 25 21  1  0  0  0
 20 26  1  0  0  0
 21 24  2  0  0  0
 21 23  1  0  0  0
 26 23  2  0  0  0
 23 22  1  0  0  0
 33 34  1  0  0  0
 33 35  1  0  0  0
 27 29  1  0  0  0
M  END
> <minimizedAffinity>
-8.93836

$$$$
5IME_6BZ_A_601


 35 38  0  0  0  0  0  0  0  0999 V2000
   17.0519  -17.5033   11.9566 C   0  0  0  0  0  0  0  0  0  0  0  0
   17.0715  -18.3150   13.0592 C   0  0  0  0  0  0  0  0  0  0  0  0
   16.0720  -18.1646   14.0517 C   0  0  0  0  0  0  0  0  0  0  0  0
   16.0578  -18.9792   15.1943 C   0  0  0  0  0  0  0  0  0  0  0  0
   15.1091  -18.7991   16.0917 N   0  0  0  0  0  0  0  0  0  0  0  0
   14.1770  -17.8668   15.9293 C   0  0  0  0  0  0  0  0  0  0  0  0
   14.1479  -17.0744   14.8692 N   0  0  0  0  0  0  0  0  0  0  0  0
   15.0705  -17.1816   13.9140 C   0  0  0  0  0  0  0  0  0  0  0  0
   15.0532  -16.3657   12.8067 N   0  0  0  0  0  0  0  0  0  0  0  0
   15.9901  -16.4995   11.8371 C   0  0  0  0  0  0  0  0  0  0  0  0
   15.9578  -15.7728   10.8577 O   0  0  0  0  0  0  0  0  0  0  0  0
   18.9275  -18.6700    8.8920 C   0  0  0  0  0  0  0  0  0  0  0  0
   19.2580  -16.8638   10.9716 C   0  0  0  0  0  0  0  0  0  0  0  0
   20.0788  -17.8857    8.9514 C   0  0  0  0  0  0  0  0  0  0  0  0
   20.2348  -16.9887   10.0049 C   0  0  0  0  0  0  0  0  0  0  0  0
   18.0996  -17.6432   10.9114 C   0  0  0  0  0  0  0  0  0  0  0  0
   17.9418  -18.5480    9.8603 C   0  0  0  0  0  0  0  0  0  0  0  0
   16.5073  -19.5200    9.7717 Cl  0  0  0  0  0  0  0  0  0  0  0  0
   20.8176  -17.6678    6.6927 C   0  0  0  0  0  0  0  0  0  0  0  0
   21.7641  -17.7715    5.7272 C   0  0  0  0  0  0  0  0  0  0  0  0
   22.3358  -18.4622    8.2756 C   0  0  0  0  0  0  0  0  0  0  0  0
   24.6897  -19.0557    7.5368 C   0  0  0  0  0  0  0  0  0  0  0  0
   23.2982  -18.5578    7.2403 C   0  0  0  0  0  0  0  0  0  0  0  0
   22.6359  -18.7859    9.4120 O   0  0  0  0  0  0  0  0  0  0  0  0
   21.0915  -18.0115    7.9819 N   0  0  0  0  0  0  0  0  0  0  0  0
   22.9847  -18.2128    6.0144 N   0  0  0  0  0  0  0  0  0  0  0  0
   13.2097  -17.7291   16.9083 N   0  0  0  0  0  0  0  0  0  0  0  0
   11.9483  -17.0394   16.6302 C   0  0  0  0  0  0  0  0  0  0  0  0
   13.3717  -18.1005   17.8056 H   0  0  0  0  0  0  0  0  0  0  0  0
   13.9984  -15.3531   12.6618 C   0  0  0  0  0  0  0  0  0  0  0  0
   12.7784  -15.8997   11.9041 C   0  0  0  0  0  0  0  0  0  0  0  0
   12.2800  -14.8989   10.8573 C   0  0  0  0  0  0  0  0  0  0  0  0
   13.4192  -14.2050   10.2381 N   0  0  0  0  0  0  0  0  0  0  0  0
   13.9408  -13.7009   10.9552 H   0  0  0  0  0  0  0  0  0  0  0  0
   13.0766  -13.5452    9.5398 H   0  0  0  0  0  0  0  0  0  0  0  0
 27 28  1  0  0  0
 27  6  1  0  0  0
  5  6  2  0  0  0
  5  4  1  0  0  0
  6  7  1  0  0  0
  4  3  2  0  0  0
  7  8  2  0  0  0
  3  8  1  0  0  0
  3  2  1  0  0  0
  8  9  1  0  0  0
  2  1  2  0  0  0
  9 30  1  0  0  0
  9 10  1  0  0  0
  1 10  1  0  0  0
  1 16  1  0  0  0
 31 30  1  0  0  0
 31 32  1  0  0  0
 10 11  2  0  0  0
 16 13  2  0  0  0
 16 17  1  0  0  0
 18 17  1  0  0  0
 32 33  1  0  0  0
 13 15  1  0  0  0
 17 12  2  0  0  0
 15 14  2  0  0  0
 12 14  1  0  0  0
 14 25  1  0  0  0
 19 25  1  0  0  0
 19 20  2  0  0  0
 25 21  1  0  0  0
 20 26  1  0  0  0
 21 24  2  0  0  0
 21 23  1  0  0  0
 26 23  2  0  0  0
 23 22  1  0  0  0
 33 34  1  0  0  0
 33 35  1  0  0  0
 27 29  1  0  0  0
M  END
> <minimizedAffinity>
-8.89912

$$$$
5IME_6BZ_A_601


 35 38  0  0  0  0  0  0  0  0999 V2000
   14.1220  -15.4601   13.8677 C   0  0  0  0  0  0  0  0  0  0  0  0
   13.1032  -16.1517   14.4667 C   0  0  0  0  0  0  0  0  0  0  0  0
   12.2108  -15.4682   15.3286 C   0  0  0  0  0  0  0  0  0  0  0  0
   11.1536  -16.1424   15.9587 C   0  0  0  0  0  0  0  0  0  0  0  0
   10.3514  -15.4638   16.7547 N   0  0  0  0  0  0  0  0  0  0  0  0
   10.5293  -14.1644   16.9651 C   0  0  0  0  0  0  0  0  0  0  0  0
   11.5112  -13.4846   16.3939 N   0  0  0  0  0  0  0  0  0  0  0  0
   12.3735  -14.0900   15.5784 C   0  0  0  0  0  0  0  0  0  0  0  0
   13.3985  -13.3970   14.9774 N   0  0  0  0  0  0  0  0  0  0  0  0
   14.2565  -14.0255   14.1381 C   0  0  0  0  0  0  0  0  0  0  0  0
   15.1568  -13.3960   13.6075 O   0  0  0  0  0  0  0  0  0  0  0  0
   15.8532  -16.7140   10.7530 C   0  0  0  0  0  0  0  0  0  0  0  0
   16.0913  -16.9558   13.5064 C   0  0  0  0  0  0  0  0  0  0  0  0
   16.8734  -17.4956   11.2937 C   0  0  0  0  0  0  0  0  0  0  0  0
   16.9764  -17.6141   12.6772 C   0  0  0  0  0  0  0  0  0  0  0  0
   15.0719  -16.1659   12.9682 C   0  0  0  0  0  0  0  0  0  0  0  0
   14.9612  -16.0492   11.5815 C   0  0  0  0  0  0  0  0  0  0  0  0
   13.7019  -15.0696   10.8998 Cl  0  0  0  0  0  0  0  0  0  0  0  0
   17.6149  -19.5263   10.2829 C   0  0  0  0  0  0  0  0  0  0  0  0
   18.4594  -20.2298    9.4887 C   0  0  0  0  0  0  0  0  0  0  0  0
   18.8031  -17.5715    9.8261 C   0  0  0  0  0  0  0  0  0  0  0  0
   20.8166  -17.6842    8.2861 C   0  0  0  0  0  0  0  0  0  0  0  0
   19.6653  -18.3395    9.0051 C   0  0  0  0  0  0  0  0  0  0  0  0
   18.9954  -16.3743    9.9515 O   0  0  0  0  0  0  0  0  0  0  0  0
   17.7752  -18.1857   10.4618 N   0  0  0  0  0  0  0  0  0  0  0  0
   19.4672  -19.6284    8.8645 N   0  0  0  0  0  0  0  0  0  0  0  0
    9.6524  -13.5111   17.8119 N   0  0  0  0  0  0  0  0  0  0  0  0
    8.4473  -14.1777   18.3096 C   0  0  0  0  0  0  0  0  0  0  0  0
    9.8412  -12.5840   18.0842 H   0  0  0  0  0  0  0  0  0  0  0  0
   13.5539  -11.9579   15.2301 C   0  0  0  0  0  0  0  0  0  0  0  0
   12.7047  -11.1115   14.2690 C   0  0  0  0  0  0  0  0  0  0  0  0
   13.5261   -9.9726   13.6575 C   0  0  0  0  0  0  0  0  0  0  0  0
   14.8949  -10.4307   13.3758 N   0  0  0  0  0  0  0  0  0  0  0  0
   15.3390  -10.7291   14.2442 H   0  0  0  0  0  0  0  0  0  0  0  0
   15.4312   -9.6667   12.9646 H   0  0  0  0  0  0  0  0  0  0  0  0
 27 28  1  0  0  0
 27  6  1  0  0  0
  5  6  2  0  0  0
  5  4  1  0  0  0
  6  7  1  0  0  0
  4  3  2  0  0  0
  7  8  2  0  0  0
  3  8  1  0  0  0
  3  2  1  0  0  0
  8  9  1  0  0  0
  2  1  2  0  0  0
  9 30  1  0  0  0
  9 10  1  0  0  0
  1 10  1  0  0  0
  1 16  1  0  0  0
 31 30  1  0  0  0
 31 32  1  0  0  0
 10 11  2  0  0  0
 16 13  2  0  0  0
 16 17  1  0  0  0
 18 17  1  0  0  0
 32 33  1  0  0  0
 13 15  1  0  0  0
 17 12  2  0  0  0
 15 14  2  0  0  0
 12 14  1  0  0  0
 14 25  1  0  0  0
 19 25  1  0  0  0
 19 20  2  0  0  0
 25 21  1  0  0  0
 20 26  1  0  0  0
 21 24  2  0  0  0
 21 23  1  0  0  0
 26 23  2  0  0  0
 23 22  1  0  0  0
 33 34  1  0  0  0
 33 35  1  0  0  0
 27 29  1  0  0  0
M  END
> <minimizedAffinity>
-7.75891

$$$$
5IME_6BZ_A_601


 35 38  0  0  0  0  0  0  0  0999 V2000
   13.6427  -14.8132   13.4160 C   0  0  0  0  0  0  0  0  0  0  0  0
   13.8273  -13.4643   13.5618 C   0  0  0  0  0  0  0  0  0  0  0  0
   12.8653  -12.7029   14.2698 C   0  0  0  0  0  0  0  0  0  0  0  0
   13.0210  -11.3189   14.4418 C   0  0  0  0  0  0  0  0  0  0  0  0
   12.0971  -10.6527   15.1054 N   0  0  0  0  0  0  0  0  0  0  0  0
   11.0328  -11.2686   15.6077 C   0  0  0  0  0  0  0  0  0  0  0  0
   10.8414  -12.5714   15.4722 N   0  0  0  0  0  0  0  0  0  0  0  0
   11.7209  -13.3234   14.8117 C   0  0  0  0  0  0  0  0  0  0  0  0
   11.5358  -14.6782   14.6628 N   0  0  0  0  0  0  0  0  0  0  0  0
   12.4488  -15.4302   14.0019 C   0  0  0  0  0  0  0  0  0  0  0  0
   12.2740  -16.6318   13.8837 O   0  0  0  0  0  0  0  0  0  0  0  0
   15.6585  -16.3033   10.5900 C   0  0  0  0  0  0  0  0  0  0  0  0
   15.5043  -16.4795   13.3543 C   0  0  0  0  0  0  0  0  0  0  0  0
   16.5250  -17.1510   11.2791 C   0  0  0  0  0  0  0  0  0  0  0  0
   16.4313  -17.2350   12.6658 C   0  0  0  0  0  0  0  0  0  0  0  0
   14.6390  -15.6237   12.6675 C   0  0  0  0  0  0  0  0  0  0  0  0
   14.7253  -15.5408   11.2768 C   0  0  0  0  0  0  0  0  0  0  0  0
   13.6590  -14.4803   10.4116 Cl  0  0  0  0  0  0  0  0  0  0  0  0
   17.2762  -19.2866   10.5243 C   0  0  0  0  0  0  0  0  0  0  0  0
   18.1569  -20.0836    9.8700 C   0  0  0  0  0  0  0  0  0  0  0  0
   18.5606  -17.4149    9.9867 C   0  0  0  0  0  0  0  0  0  0  0  0
   20.6841  -17.7245    8.6327 C   0  0  0  0  0  0  0  0  0  0  0  0
   19.4588  -18.2791    9.3132 C   0  0  0  0  0  0  0  0  0  0  0  0
   18.7818  -16.2165   10.0160 O   0  0  0  0  0  0  0  0  0  0  0  0
   17.4662  -17.9396   10.5908 N   0  0  0  0  0  0  0  0  0  0  0  0
   19.2299  -19.5700    9.2768 N   0  0  0  0  0  0  0  0  0  0  0  0
   10.1001  -10.5116   16.2934 N   0  0  0  0  0  0  0  0  0  0  0  0
    9.0207   -9.8217   15.5842 C   0  0  0  0  0  0  0  0  0  0  0  0
   10.1629  -10.4355   17.2729 H   0  0  0  0  0  0  0  0  0  0  0  0
   10.3487  -15.3214   15.2425 C   0  0  0  0  0  0  0  0  0  0  0  0
   10.5194  -15.5930   16.7453 C   0  0  0  0  0  0  0  0  0  0  0  0
   10.8211  -17.0706   17.0124 C   0  0  0  0  0  0  0  0  0  0  0  0
   12.2746  -17.2903   17.0562 N   0  0  0  0  0  0  0  0  0  0  0  0
   12.6855  -17.0258   16.1609 H   0  0  0  0  0  0  0  0  0  0  0  0
   12.4641  -18.2757   17.2394 H   0  0  0  0  0  0  0  0  0  0  0  0
 27 28  1  0  0  0
 27  6  1  0  0  0
  5  6  2  0  0  0
  5  4  1  0  0  0
  6  7  1  0  0  0
  4  3  2  0  0  0
  7  8  2  0  0  0
  3  8  1  0  0  0
  3  2  1  0  0  0
  8  9  1  0  0  0
  2  1  2  0  0  0
  9 30  1  0  0  0
  9 10  1  0  0  0
  1 10  1  0  0  0
  1 16  1  0  0  0
 31 30  1  0  0  0
 31 32  1  0  0  0
 10 11  2  0  0  0
 16 13  2  0  0  0
 16 17  1  0  0  0
 18 17  1  0  0  0
 32 33  1  0  0  0
 13 15  1  0  0  0
 17 12  2  0  0  0
 15 14  2  0  0  0
 12 14  1  0  0  0
 14 25  1  0  0  0
 19 25  1  0  0  0
 19 20  2  0  0  0
 25 21  1  0  0  0
 20 26  1  0  0  0
 21 24  2  0  0  0
 21 23  1  0  0  0
 26 23  2  0  0  0
 23 22  1  0  0  0
 33 34  1  0  0  0
 33 35  1  0  0  0
 27 29  1  0  0  0
M  END
> <minimizedAffinity>
-7.17786

$$$$
5IME_6BZ_A_601


 35 38  0  0  0  0  0  0  0  0999 V2000
   13.7782  -16.1009   14.1179 C   0  0  0  0  0  0  0  0  0  0  0  0
   12.8508  -16.9978   14.5766 C   0  0  0  0  0  0  0  0  0  0  0  0
   11.8398  -16.5593   15.4666 C   0  0  0  0  0  0  0  0  0  0  0  0
   10.8707  -17.4483   15.9563 C   0  0  0  0  0  0  0  0  0  0  0  0
    9.9518  -16.9938   16.7851 N   0  0  0  0  0  0  0  0  0  0  0  0
    9.9321  -15.7190   17.1578 C   0  0  0  0  0  0  0  0  0  0  0  0
   10.8238  -14.8424   16.7233 N   0  0  0  0  0  0  0  0  0  0  0  0
   11.7921  -15.2142   15.8870 C   0  0  0  0  0  0  0  0  0  0  0  0
   12.7256  -14.3148   15.4268 N   0  0  0  0  0  0  0  0  0  0  0  0
   13.6939  -14.7070   14.5641 C   0  0  0  0  0  0  0  0  0  0  0  0
   14.5109  -13.8962   14.1596 O   0  0  0  0  0  0  0  0  0  0  0  0
   15.8336  -16.6075   10.9891 C   0  0  0  0  0  0  0  0  0  0  0  0
   15.8984  -17.3435   13.6631 C   0  0  0  0  0  0  0  0  0  0  0  0
   16.8813  -17.3948   11.4653 C   0  0  0  0  0  0  0  0  0  0  0  0
   16.8970  -17.7629   12.8080 C   0  0  0  0  0  0  0  0  0  0  0  0
   14.8506  -16.5486   13.1909 C   0  0  0  0  0  0  0  0  0  0  0  0
   14.8276  -16.1821   11.8441 C   0  0  0  0  0  0  0  0  0  0  0  0
   13.5341  -15.1933   11.2449 Cl  0  0  0  0  0  0  0  0  0  0  0  0
   17.6381  -18.8746    9.7529 C   0  0  0  0  0  0  0  0  0  0  0  0
   18.5893  -19.3372    8.9043 C   0  0  0  0  0  0  0  0  0  0  0  0
   19.1377  -17.2913   10.5812 C   0  0  0  0  0  0  0  0  0  0  0  0
   21.4905  -17.2082    9.6347 C   0  0  0  0  0  0  0  0  0  0  0  0
   20.1057  -17.8018    9.6816 C   0  0  0  0  0  0  0  0  0  0  0  0
   19.4280  -16.3675   11.3217 O   0  0  0  0  0  0  0  0  0  0  0  0
   17.8997  -17.8434   10.6033 N   0  0  0  0  0  0  0  0  0  0  0  0
   19.8033  -18.7960    8.8815 N   0  0  0  0  0  0  0  0  0  0  0  0
    8.9413  -15.3061   18.0301 N   0  0  0  0  0  0  0  0  0  0  0  0
    8.1900  -14.0727   17.7883 C   0  0  0  0  0  0  0  0  0  0  0  0
    8.7381  -15.8497   18.8254 H   0  0  0  0  0  0  0  0  0  0  0  0
   12.6619  -12.9113   15.8570 C   0  0  0  0  0  0  0  0  0  0  0  0
   11.9355  -12.0288   14.8301 C   0  0  0  0  0  0  0  0  0  0  0  0
   10.5227  -11.6737   15.3029 C   0  0  0  0  0  0  0  0  0  0  0  0
   10.4439  -11.7572   16.7691 N   0  0  0  0  0  0  0  0  0  0  0  0
   10.6632  -12.7075   17.0678 H   0  0  0  0  0  0  0  0  0  0  0  0
    9.5012  -11.5142   17.0733 H   0  0  0  0  0  0  0  0  0  0  0  0
 27 28  1  0  0  0
 27  6  1  0  0  0
  5  6  2  0  0  0
  5  4  1  0  0  0
  6  7  1  0  0  0
  4  3  2  0  0  0
  7  8  2  0  0  0
  3  8  1  0  0  0
  3  2  1  0  0  0
  8  9  1  0  0  0
  2  1  2  0  0  0
  9 30  1  0  0  0
  9 10  1  0  0  0
  1 10  1  0  0  0
  1 16  1  0  0  0
 31 30  1  0  0  0
 31 32  1  0  0  0
 10 11  2  0  0  0
 16 13  2  0  0  0
 16 17  1  0  0  0
 18 17  1  0  0  0
 32 33  1  0  0  0
 13 15  1  0  0  0
 17 12  2  0  0  0
 15 14  2  0  0  0
 12 14  1  0  0  0
 14 25  1  0  0  0
 19 25  1  0  0  0
 19 20  2  0  0  0
 25 21  1  0  0  0
 20 26  1  0  0  0
 21 24  2  0  0  0
 21 23  1  0  0  0
 26 23  2  0  0  0
 23 22  1  0  0  0
 33 34  1  0  0  0
 33 35  1  0  0  0
 27 29  1  0  0  0
M  END
> <minimizedAffinity>
-7.15672

$$$$
5IME_6BZ_A_601


 35 38  0  0  0  0  0  0  0  0999 V2000
   13.4874  -14.9753   12.7079 C   0  0  0  0  0  0  0  0  0  0  0  0
   13.6196  -14.6397   14.0288 C   0  0  0  0  0  0  0  0  0  0  0  0
   12.6244  -13.8438   14.6474 C   0  0  0  0  0  0  0  0  0  0  0  0
   12.7239  -13.4814   15.9995 C   0  0  0  0  0  0  0  0  0  0  0  0
   11.7742  -12.7367   16.5297 N   0  0  0  0  0  0  0  0  0  0  0  0
   10.7359  -12.3299   15.8080 C   0  0  0  0  0  0  0  0  0  0  0  0
   10.5972  -12.6456   14.5299 N   0  0  0  0  0  0  0  0  0  0  0  0
   11.5115  -13.3904   13.9098 C   0  0  0  0  0  0  0  0  0  0  0  0
   11.3810  -13.7267   12.5824 N   0  0  0  0  0  0  0  0  0  0  0  0
   12.3125  -14.4985   11.9721 C   0  0  0  0  0  0  0  0  0  0  0  0
   12.1796  -14.7938   10.7958 O   0  0  0  0  0  0  0  0  0  0  0  0
   15.6656  -17.9086   11.7478 C   0  0  0  0  0  0  0  0  0  0  0  0
   15.3589  -15.2355   11.0721 C   0  0  0  0  0  0  0  0  0  0  0  0
   16.4877  -17.3417   10.7747 C   0  0  0  0  0  0  0  0  0  0  0  0
   16.3276  -15.9970   10.4509 C   0  0  0  0  0  0  0  0  0  0  0  0
   14.5285  -15.8021   12.0428 C   0  0  0  0  0  0  0  0  0  0  0  0
   14.6895  -17.1483   12.3748 C   0  0  0  0  0  0  0  0  0  0  0  0
   13.6636  -17.8653   13.5764 Cl  0  0  0  0  0  0  0  0  0  0  0  0
   17.2680  -19.4236    9.9075 C   0  0  0  0  0  0  0  0  0  0  0  0
   18.2059  -20.1913    9.2994 C   0  0  0  0  0  0  0  0  0  0  0  0
   18.6760  -17.5701    9.7536 C   0  0  0  0  0  0  0  0  0  0  0  0
   20.9586  -17.8416    8.6790 C   0  0  0  0  0  0  0  0  0  0  0  0
   19.6318  -18.4035    9.1219 C   0  0  0  0  0  0  0  0  0  0  0  0
   18.9299  -16.3924    9.9403 O   0  0  0  0  0  0  0  0  0  0  0  0
   17.4906  -18.1006   10.1423 N   0  0  0  0  0  0  0  0  0  0  0  0
   19.3684  -19.6719    8.9173 N   0  0  0  0  0  0  0  0  0  0  0  0
    9.7739  -11.5504   16.4245 N   0  0  0  0  0  0  0  0  0  0  0  0
    8.9190  -10.6520   15.6460 C   0  0  0  0  0  0  0  0  0  0  0  0
    9.6624  -11.6003   17.4014 H   0  0  0  0  0  0  0  0  0  0  0  0
   10.2116  -13.2634   11.8229 C   0  0  0  0  0  0  0  0  0  0  0  0
   10.5040  -11.9653   11.0544 C   0  0  0  0  0  0  0  0  0  0  0  0
    9.2590  -11.4635   10.3169 C   0  0  0  0  0  0  0  0  0  0  0  0
    9.5391  -11.3382    8.8787 N   0  0  0  0  0  0  0  0  0  0  0  0
   10.2981  -10.6717    8.7369 H   0  0  0  0  0  0  0  0  0  0  0  0
    8.7027  -11.0084    8.3969 H   0  0  0  0  0  0  0  0  0  0  0  0
 27 28  1  0  0  0
 27  6  1  0  0  0
  5  6  2  0  0  0
  5  4  1  0  0  0
  6  7  1  0  0  0
  4  3  2  0  0  0
  7  8  2  0  0  0
  3  8  1  0  0  0
  3  2  1  0  0  0
  8  9  1  0  0  0
  2  1  2  0  0  0
  9 30  1  0  0  0
  9 10  1  0  0  0
  1 10  1  0  0  0
  1 16  1  0  0  0
 31 30  1  0  0  0
 31 32  1  0  0  0
 10 11  2  0  0  0
 16 13  2  0  0  0
 16 17  1  0  0  0
 18 17  1  0  0  0
 32 33  1  0  0  0
 13 15  1  0  0  0
 17 12  2  0  0  0
 15 14  2  0  0  0
 12 14  1  0  0  0
 14 25  1  0  0  0
 19 25  1  0  0  0
 19 20  2  0  0  0
 25 21  1  0  0  0
 20 26  1  0  0  0
 21 24  2  0  0  0
 21 23  1  0  0  0
 26 23  2  0  0  0
 23 22  1  0  0  0
 33 34  1  0  0  0
 33 35  1  0  0  0
 27 29  1  0  0  0
M  END
> <minimizedAffinity>
-6.64787

$$$$
