5FH8_5XK_A_801


 22 24  0  0  0  0  0  0  0  0999 V2000
    3.3047   26.9273    7.1680 C   0  0  0  0  0  0  0  0  0  0  0  0
    0.3640   28.7439    9.4958 C   0  0  0  0  0  0  0  0  0  0  0  0
    2.5772   24.4449    6.0277 C   0  0  0  0  0  0  0  0  0  0  0  0
   -0.7793   27.7957    9.2903 C   0  0  0  0  0  0  0  0  0  0  0  0
   -0.2251   26.6355    8.4788 C   0  0  0  0  0  0  0  0  0  0  0  0
    2.0116   26.3772    7.3133 C   0  0  0  0  0  0  0  0  0  0  0  0
    1.6538   25.1554    6.7597 C   0  0  0  0  0  0  0  0  0  0  0  0
    3.8628   24.9430    5.8555 C   0  0  0  0  0  0  0  0  0  0  0  0
    4.2221   26.1460    6.4376 C   0  0  0  0  0  0  0  0  0  0  0  0
    2.6316   28.8408    8.5689 N   0  0  0  0  0  0  0  0  0  0  0  0
    5.9304   26.5288    6.3760 Cl  0  0  0  0  0  0  0  0  0  0  0  0
    3.6148   28.2364    7.7942 C   0  0  0  0  0  0  0  0  0  0  0  0
    4.6535   28.8392    7.5489 O   0  0  0  0  0  0  0  0  0  0  0  0
    1.4599   28.2850    8.6965 C   0  0  0  0  0  0  0  0  0  0  0  0
    1.1025   27.1034    8.0841 N   0  0  0  0  0  0  0  0  0  0  0  0
    2.8214   29.6931    9.0236 H   0  0  0  0  0  0  0  0  0  0  0  0
    0.3832   29.8108   10.2876 C   0  0  0  0  0  0  0  0  0  0  0  0
   -0.4765   30.0789   11.4843 C   0  0  0  0  0  0  0  0  0  0  0  0
    0.6322   28.4152   13.0455 C   0  0  0  0  0  0  0  0  0  0  0  0
    0.2941   29.8718   12.7601 C   0  0  0  0  0  0  0  0  0  0  0  0
   -0.9253   31.5517   11.3535 C   0  0  0  0  0  0  0  0  0  0  0  0
   -1.5196   31.8547   10.0097 C   0  0  0  0  0  0  0  0  0  0  0  0
  8  3  2  0  0  0
  8  9  1  0  0  0
  3  7  1  0  0  0
 11  9  1  0  0  0
  9  1  2  0  0  0
  7  6  2  0  0  0
  1  6  1  0  0  0
  1 12  1  0  0  0
  6 15  1  0  0  0
 13 12  2  0  0  0
 12 10  1  0  0  0
 15  5  1  0  0  0
 15 14  1  0  0  0
 10 14  1  0  0  0
  5  4  2  0  0  0
 14  2  2  0  0  0
  4  2  1  0  0  0
  2 17  1  0  0  0
 22 21  1  0  0  0
 17 18  1  0  0  0
 21 18  1  0  0  0
 18 20  1  0  0  0
 20 19  1  0  0  0
 10 16  1  0  0  0
M  END
> <minimizedAffinity>
-7.81139

$$$$
5FH8_5XK_A_801


 22 24  0  0  0  0  0  0  0  0999 V2000
    3.2698   26.8922    7.1345 C   0  0  0  0  0  0  0  0  0  0  0  0
   -0.0145   28.2088    9.3359 C   0  0  0  0  0  0  0  0  0  0  0  0
    2.9390   24.3945    5.8524 C   0  0  0  0  0  0  0  0  0  0  0  0
   -1.0112   27.1340    9.0193 C   0  0  0  0  0  0  0  0  0  0  0  0
   -0.2641   26.0933    8.2005 C   0  0  0  0  0  0  0  0  0  0  0  0
    2.0524   26.1763    7.1737 C   0  0  0  0  0  0  0  0  0  0  0  0
    1.8894   24.9466    6.5503 C   0  0  0  0  0  0  0  0  0  0  0  0
    4.1572   25.0592    5.7839 C   0  0  0  0  0  0  0  0  0  0  0  0
    4.3224   26.2691    6.4351 C   0  0  0  0  0  0  0  0  0  0  0  0
    2.2724   28.6363    8.5629 N   0  0  0  0  0  0  0  0  0  0  0  0
    5.9673   26.8679    6.4998 Cl  0  0  0  0  0  0  0  0  0  0  0  0
    3.3699   28.1989    7.8306 C   0  0  0  0  0  0  0  0  0  0  0  0
    4.3345   28.9395    7.6772 O   0  0  0  0  0  0  0  0  0  0  0  0
    1.1770   27.9310    8.5921 C   0  0  0  0  0  0  0  0  0  0  0  0
    1.0128   26.7440    7.9117 N   0  0  0  0  0  0  0  0  0  0  0  0
    2.3229   29.4834    9.0621 H   0  0  0  0  0  0  0  0  0  0  0  0
   -0.1808   29.2308   10.1687 C   0  0  0  0  0  0  0  0  0  0  0  0
   -1.0074   30.4613    9.9550 C   0  0  0  0  0  0  0  0  0  0  0  0
   -3.3574   30.1049    9.0690 C   0  0  0  0  0  0  0  0  0  0  0  0
   -2.4523   30.2059   10.2888 C   0  0  0  0  0  0  0  0  0  0  0  0
   -0.4128   31.5317   10.8975 C   0  0  0  0  0  0  0  0  0  0  0  0
   -1.2508   32.7747   10.9573 C   0  0  0  0  0  0  0  0  0  0  0  0
  8  3  2  0  0  0
  8  9  1  0  0  0
  3  7  1  0  0  0
 11  9  1  0  0  0
  9  1  2  0  0  0
  7  6  2  0  0  0
  1  6  1  0  0  0
  1 12  1  0  0  0
  6 15  1  0  0  0
 13 12  2  0  0  0
 12 10  1  0  0  0
 15  5  1  0  0  0
 15 14  1  0  0  0
 10 14  1  0  0  0
  5  4  2  0  0  0
 14  2  2  0  0  0
  4  2  1  0  0  0
  2 17  1  0  0  0
 22 21  1  0  0  0
 17 18  1  0  0  0
 21 18  1  0  0  0
 18 20  1  0  0  0
 20 19  1  0  0  0
 10 16  1  0  0  0
M  END
> <minimizedAffinity>
-7.80883

$$$$
5FH8_5XK_A_801


 22 24  0  0  0  0  0  0  0  0999 V2000
   -1.8192   27.0105    9.1684 C   0  0  0  0  0  0  0  0  0  0  0  0
    2.1434   27.3508    7.9239 C   0  0  0  0  0  0  0  0  0  0  0  0
   -3.1005   29.4516    9.7935 C   0  0  0  0  0  0  0  0  0  0  0  0
    2.2958   28.8420    7.8840 C   0  0  0  0  0  0  0  0  0  0  0  0
    1.0016   29.4139    8.4404 C   0  0  0  0  0  0  0  0  0  0  0  0
   -1.1871   28.2625    8.9988 C   0  0  0  0  0  0  0  0  0  0  0  0
   -1.8119   29.4623    9.3111 C   0  0  0  0  0  0  0  0  0  0  0  0
   -3.7658   28.2459    9.9781 C   0  0  0  0  0  0  0  0  0  0  0  0
   -3.1252   27.0522    9.6955 C   0  0  0  0  0  0  0  0  0  0  0  0
    0.2364   25.8861    8.4018 N   0  0  0  0  0  0  0  0  0  0  0  0
   -3.9643   25.6074   10.2220 Cl  0  0  0  0  0  0  0  0  0  0  0  0
   -1.0847   25.7695    8.8181 C   0  0  0  0  0  0  0  0  0  0  0  0
   -1.6438   24.6796    8.7733 O   0  0  0  0  0  0  0  0  0  0  0  0
    0.7881   27.0607    8.2836 C   0  0  0  0  0  0  0  0  0  0  0  0
    0.1293   28.2445    8.5354 N   0  0  0  0  0  0  0  0  0  0  0  0
    0.7580   25.0770    8.1953 H   0  0  0  0  0  0  0  0  0  0  0  0
    3.0880   26.4457    7.6908 C   0  0  0  0  0  0  0  0  0  0  0  0
    3.9077   26.2763    6.4489 C   0  0  0  0  0  0  0  0  0  0  0  0
    6.1540   26.8263    5.4068 C   0  0  0  0  0  0  0  0  0  0  0  0
    5.3347   26.6927    6.6828 C   0  0  0  0  0  0  0  0  0  0  0  0
    3.8305   24.7729    6.1003 C   0  0  0  0  0  0  0  0  0  0  0  0
    2.4337   24.3274    5.7822 C   0  0  0  0  0  0  0  0  0  0  0  0
  8  3  2  0  0  0
  8  9  1  0  0  0
  3  7  1  0  0  0
 11  9  1  0  0  0
  9  1  2  0  0  0
  7  6  2  0  0  0
  1  6  1  0  0  0
  1 12  1  0  0  0
  6 15  1  0  0  0
 13 12  2  0  0  0
 12 10  1  0  0  0
 15  5  1  0  0  0
 15 14  1  0  0  0
 10 14  1  0  0  0
  5  4  2  0  0  0
 14  2  2  0  0  0
  4  2  1  0  0  0
  2 17  1  0  0  0
 22 21  1  0  0  0
 17 18  1  0  0  0
 21 18  1  0  0  0
 18 20  1  0  0  0
 20 19  1  0  0  0
 10 16  1  0  0  0
M  END
> <minimizedAffinity>
-6.94452

$$$$
5FH8_5XK_A_801


 22 24  0  0  0  0  0  0  0  0999 V2000
   -1.3577   26.4426   10.3357 C   0  0  0  0  0  0  0  0  0  0  0  0
    1.9201   27.5378    8.0071 C   0  0  0  0  0  0  0  0  0  0  0  0
   -2.0982   28.3066   12.3279 C   0  0  0  0  0  0  0  0  0  0  0  0
    2.1884   28.9158    8.5342 C   0  0  0  0  0  0  0  0  0  0  0  0
    1.2354   29.1142    9.7021 C   0  0  0  0  0  0  0  0  0  0  0  0
   -0.7117   27.6904   10.4829 C   0  0  0  0  0  0  0  0  0  0  0  0
   -1.0692   28.6047   11.4644 C   0  0  0  0  0  0  0  0  0  0  0  0
   -2.7655   27.0923   12.2245 C   0  0  0  0  0  0  0  0  0  0  0  0
   -2.3822   26.1721   11.2646 C   0  0  0  0  0  0  0  0  0  0  0  0
    0.1771   25.8827    8.4897 N   0  0  0  0  0  0  0  0  0  0  0  0
   -3.1126   24.5867   11.4111 Cl  0  0  0  0  0  0  0  0  0  0  0  0
   -0.9156   25.5142    9.2658 C   0  0  0  0  0  0  0  0  0  0  0  0
   -1.5543   24.5078    8.9801 O   0  0  0  0  0  0  0  0  0  0  0  0
    0.7593   27.0334    8.6767 C   0  0  0  0  0  0  0  0  0  0  0  0
    0.3472   27.9563    9.6133 N   0  0  0  0  0  0  0  0  0  0  0  0
    0.5129   25.2712    7.7950 H   0  0  0  0  0  0  0  0  0  0  0  0
    2.6310   26.8788    7.0982 C   0  0  0  0  0  0  0  0  0  0  0  0
    3.8107   25.9856    7.3294 C   0  0  0  0  0  0  0  0  0  0  0  0
    2.4524   24.4685    5.8168 C   0  0  0  0  0  0  0  0  0  0  0  0
    3.8292   24.8493    6.3430 C   0  0  0  0  0  0  0  0  0  0  0  0
    5.0551   26.8833    7.1476 C   0  0  0  0  0  0  0  0  0  0  0  0
    5.7955   26.5894    5.8763 C   0  0  0  0  0  0  0  0  0  0  0  0
  8  3  2  0  0  0
  8  9  1  0  0  0
  3  7  1  0  0  0
 11  9  1  0  0  0
  9  1  2  0  0  0
  7  6  2  0  0  0
  1  6  1  0  0  0
  1 12  1  0  0  0
  6 15  1  0  0  0
 13 12  2  0  0  0
 12 10  1  0  0  0
 15  5  1  0  0  0
 15 14  1  0  0  0
 10 14  1  0  0  0
  5  4  2  0  0  0
 14  2  2  0  0  0
  4  2  1  0  0  0
  2 17  1  0  0  0
 22 21  1  0  0  0
 17 18  1  0  0  0
 21 18  1  0  0  0
 18 20  1  0  0  0
 20 19  1  0  0  0
 10 16  1  0  0  0
M  END
> <minimizedAffinity>
-6.73788

$$$$
5FH8_5XK_A_801


 22 24  0  0  0  0  0  0  0  0999 V2000
    2.6398   26.2756    7.1832 C   0  0  0  0  0  0  0  0  0  0  0  0
   -1.2474   26.3008    8.6850 C   0  0  0  0  0  0  0  0  0  0  0  0
    4.2140   28.5197    7.8744 C   0  0  0  0  0  0  0  0  0  0  0  0
   -1.2129   27.5414    9.5266 C   0  0  0  0  0  0  0  0  0  0  0  0
    0.1415   28.1849    9.2750 C   0  0  0  0  0  0  0  0  0  0  0  0
    2.1688   27.2963    8.0389 C   0  0  0  0  0  0  0  0  0  0  0  0
    2.9376   28.4024    8.3748 C   0  0  0  0  0  0  0  0  0  0  0  0
    4.7237   27.5424    7.0285 C   0  0  0  0  0  0  0  0  0  0  0  0
    3.9400   26.4589    6.6720 C   0  0  0  0  0  0  0  0  0  0  0  0
    0.4616   25.1362    7.3684 N   0  0  0  0  0  0  0  0  0  0  0  0
    4.5918   25.4481    5.3984 Cl  0  0  0  0  0  0  0  0  0  0  0  0
    1.7572   25.1259    6.8649 C   0  0  0  0  0  0  0  0  0  0  0  0
    2.1763   24.1328    6.2814 O   0  0  0  0  0  0  0  0  0  0  0  0
    0.0607   26.1115    8.1340 C   0  0  0  0  0  0  0  0  0  0  0  0
    0.8613   27.1681    8.5099 N   0  0  0  0  0  0  0  0  0  0  0  0
   -0.1562   24.4029    7.1454 H   0  0  0  0  0  0  0  0  0  0  0  0
   -2.2969   25.5168    8.4620 C   0  0  0  0  0  0  0  0  0  0  0  0
   -3.2045   24.8912    9.4757 C   0  0  0  0  0  0  0  0  0  0  0  0
   -4.6904   24.9695    7.4214 C   0  0  0  0  0  0  0  0  0  0  0  0
   -4.5080   24.4751    8.8495 C   0  0  0  0  0  0  0  0  0  0  0  0
   -2.4424   23.6594   10.0137 C   0  0  0  0  0  0  0  0  0  0  0  0
   -2.2509   22.6001    8.9686 C   0  0  0  0  0  0  0  0  0  0  0  0
  8  3  2  0  0  0
  8  9  1  0  0  0
  3  7  1  0  0  0
 11  9  1  0  0  0
  9  1  2  0  0  0
  7  6  2  0  0  0
  1  6  1  0  0  0
  1 12  1  0  0  0
  6 15  1  0  0  0
 13 12  2  0  0  0
 12 10  1  0  0  0
 15  5  1  0  0  0
 15 14  1  0  0  0
 10 14  1  0  0  0
  5  4  2  0  0  0
 14  2  2  0  0  0
  4  2  1  0  0  0
  2 17  1  0  0  0
 22 21  1  0  0  0
 17 18  1  0  0  0
 21 18  1  0  0  0
 18 20  1  0  0  0
 20 19  1  0  0  0
 10 16  1  0  0  0
M  END
> <minimizedAffinity>
-6.72022

$$$$
5FH8_5XK_A_801


 22 24  0  0  0  0  0  0  0  0999 V2000
    0.7711   27.4644    8.3649 C   0  0  0  0  0  0  0  0  0  0  0  0
   -2.7568   25.2862    8.7845 C   0  0  0  0  0  0  0  0  0  0  0  0
    0.6367   30.1544    9.2238 C   0  0  0  0  0  0  0  0  0  0  0  0
   -3.6240   26.2918    9.4812 C   0  0  0  0  0  0  0  0  0  0  0  0
   -2.8186   27.5804    9.5326 C   0  0  0  0  0  0  0  0  0  0  0  0
   -0.3857   28.0111    8.9639 C   0  0  0  0  0  0  0  0  0  0  0  0
   -0.4564   29.3334    9.3807 C   0  0  0  0  0  0  0  0  0  0  0  0
    1.7985   29.6644    8.6402 C   0  0  0  0  0  0  0  0  0  0  0  0
    1.8507   28.3543    8.1975 C   0  0  0  0  0  0  0  0  0  0  0  0
   -0.4083   25.3182    8.0818 N   0  0  0  0  0  0  0  0  0  0  0  0
    3.2605   27.9401    7.2438 Cl  0  0  0  0  0  0  0  0  0  0  0  0
    0.7694   26.0428    7.9394 C   0  0  0  0  0  0  0  0  0  0  0  0
    1.7958   25.4739    7.5854 O   0  0  0  0  0  0  0  0  0  0  0  0
   -1.4602   25.8704    8.6170 C   0  0  0  0  0  0  0  0  0  0  0  0
   -1.4899   27.1660    9.0854 N   0  0  0  0  0  0  0  0  0  0  0  0
   -0.4478   24.3830    7.7768 H   0  0  0  0  0  0  0  0  0  0  0  0
   -3.1139   24.0749    8.3711 C   0  0  0  0  0  0  0  0  0  0  0  0
   -4.3132   23.7022    7.5551 C   0  0  0  0  0  0  0  0  0  0  0  0
   -5.6812   25.2839    6.1194 C   0  0  0  0  0  0  0  0  0  0  0  0
   -4.3790   24.5142    6.2899 C   0  0  0  0  0  0  0  0  0  0  0  0
   -4.1455   22.2011    7.2294 C   0  0  0  0  0  0  0  0  0  0  0  0
   -3.0403   21.5616    8.0171 C   0  0  0  0  0  0  0  0  0  0  0  0
  8  3  2  0  0  0
  8  9  1  0  0  0
  3  7  1  0  0  0
 11  9  1  0  0  0
  9  1  2  0  0  0
  7  6  2  0  0  0
  1  6  1  0  0  0
  1 12  1  0  0  0
  6 15  1  0  0  0
 13 12  2  0  0  0
 12 10  1  0  0  0
 15  5  1  0  0  0
 15 14  1  0  0  0
 10 14  1  0  0  0
  5  4  2  0  0  0
 14  2  2  0  0  0
  4  2  1  0  0  0
  2 17  1  0  0  0
 22 21  1  0  0  0
 17 18  1  0  0  0
 21 18  1  0  0  0
 18 20  1  0  0  0
 20 19  1  0  0  0
 10 16  1  0  0  0
M  END
> <minimizedAffinity>
-6.59295

$$$$
5FH8_5XK_A_801


 22 24  0  0  0  0  0  0  0  0999 V2000
    1.8229   26.6178    7.6333 C   0  0  0  0  0  0  0  0  0  0  0  0
   -0.9451   29.2447    9.3078 C   0  0  0  0  0  0  0  0  0  0  0  0
    4.4315   27.6587    7.3119 C   0  0  0  0  0  0  0  0  0  0  0  0
   -0.0637   30.4174    9.6185 C   0  0  0  0  0  0  0  0  0  0  0  0
    1.3029   30.0831    9.0419 C   0  0  0  0  0  0  0  0  0  0  0  0
    2.1828   27.9096    8.0778 C   0  0  0  0  0  0  0  0  0  0  0  0
    3.4614   28.4254    7.9155 C   0  0  0  0  0  0  0  0  0  0  0  0
    4.1279   26.3813    6.8572 C   0  0  0  0  0  0  0  0  0  0  0  0
    2.8428   25.8861    6.9932 C   0  0  0  0  0  0  0  0  0  0  0  0
   -0.4871   27.0152    8.3970 N   0  0  0  0  0  0  0  0  0  0  0  0
    2.5227   24.3872    6.1450 Cl  0  0  0  0  0  0  0  0  0  0  0  0
    0.4337   26.1374    7.8368 C   0  0  0  0  0  0  0  0  0  0  0  0
    0.1190   24.9696    7.6374 O   0  0  0  0  0  0  0  0  0  0  0  0
   -0.1171   28.2077    8.7699 C   0  0  0  0  0  0  0  0  0  0  0  0
    1.1736   28.6777    8.6606 N   0  0  0  0  0  0  0  0  0  0  0  0
   -1.4237   26.7345    8.5125 H   0  0  0  0  0  0  0  0  0  0  0  0
   -2.2611   29.1693    9.4752 C   0  0  0  0  0  0  0  0  0  0  0  0
   -3.2696   30.2642    9.3107 C   0  0  0  0  0  0  0  0  0  0  0  0
   -5.3199   30.5635    7.8473 C   0  0  0  0  0  0  0  0  0  0  0  0
   -4.6027   29.7111    8.8848 C   0  0  0  0  0  0  0  0  0  0  0  0
   -3.3795   30.9412   10.6954 C   0  0  0  0  0  0  0  0  0  0  0  0
   -3.0072   32.3939   10.6565 C   0  0  0  0  0  0  0  0  0  0  0  0
  8  3  2  0  0  0
  8  9  1  0  0  0
  3  7  1  0  0  0
 11  9  1  0  0  0
  9  1  2  0  0  0
  7  6  2  0  0  0
  1  6  1  0  0  0
  1 12  1  0  0  0
  6 15  1  0  0  0
 13 12  2  0  0  0
 12 10  1  0  0  0
 15  5  1  0  0  0
 15 14  1  0  0  0
 10 14  1  0  0  0
  5  4  2  0  0  0
 14  2  2  0  0  0
  4  2  1  0  0  0
  2 17  1  0  0  0
 22 21  1  0  0  0
 17 18  1  0  0  0
 21 18  1  0  0  0
 18 20  1  0  0  0
 20 19  1  0  0  0
 10 16  1  0  0  0
M  END
> <minimizedAffinity>
-6.56120

$$$$
5FH8_5XK_A_801


 22 24  0  0  0  0  0  0  0  0999 V2000
    1.9757   27.5901    7.9235 C   0  0  0  0  0  0  0  0  0  0  0  0
   -1.9020   27.7311    9.4433 C   0  0  0  0  0  0  0  0  0  0  0  0
    2.7339   25.1178    6.7814 C   0  0  0  0  0  0  0  0  0  0  0  0
   -2.4090   26.3790    9.0392 C   0  0  0  0  0  0  0  0  0  0  0  0
   -1.2225   25.6471    8.4325 C   0  0  0  0  0  0  0  0  0  0  0  0
    1.0804   26.5035    7.8070 C   0  0  0  0  0  0  0  0  0  0  0  0
    1.4521   25.2864    7.2524 C   0  0  0  0  0  0  0  0  0  0  0  0
    3.6524   26.1563    6.8727 C   0  0  0  0  0  0  0  0  0  0  0  0
    3.2843   27.3558    7.4564 C   0  0  0  0  0  0  0  0  0  0  0  0
    0.2126   28.9037    9.0384 N   0  0  0  0  0  0  0  0  0  0  0  0
    4.5954   28.4785    7.7551 Cl  0  0  0  0  0  0  0  0  0  0  0  0
    1.5070   28.8590    8.5336 C   0  0  0  0  0  0  0  0  0  0  0  0
    2.1811   29.8820    8.4935 O   0  0  0  0  0  0  0  0  0  0  0  0
   -0.5716   27.8685    8.9319 C   0  0  0  0  0  0  0  0  0  0  0  0
   -0.2049   26.6905    8.3181 N   0  0  0  0  0  0  0  0  0  0  0  0
   -0.1133   29.7217    9.4787 H   0  0  0  0  0  0  0  0  0  0  0  0
   -2.5474   28.6430   10.1629 C   0  0  0  0  0  0  0  0  0  0  0  0
   -3.3153   29.8280    9.6638 C   0  0  0  0  0  0  0  0  0  0  0  0
   -5.2556   30.2583    8.0876 C   0  0  0  0  0  0  0  0  0  0  0  0
   -4.7044   29.4325    9.2415 C   0  0  0  0  0  0  0  0  0  0  0  0
   -3.3688   30.8189   10.8483 C   0  0  0  0  0  0  0  0  0  0  0  0
   -4.4708   30.5004   11.8151 C   0  0  0  0  0  0  0  0  0  0  0  0
  8  3  2  0  0  0
  8  9  1  0  0  0
  3  7  1  0  0  0
 11  9  1  0  0  0
  9  1  2  0  0  0
  7  6  2  0  0  0
  1  6  1  0  0  0
  1 12  1  0  0  0
  6 15  1  0  0  0
 13 12  2  0  0  0
 12 10  1  0  0  0
 15  5  1  0  0  0
 15 14  1  0  0  0
 10 14  1  0  0  0
  5  4  2  0  0  0
 14  2  2  0  0  0
  4  2  1  0  0  0
  2 17  1  0  0  0
 22 21  1  0  0  0
 17 18  1  0  0  0
 21 18  1  0  0  0
 18 20  1  0  0  0
 20 19  1  0  0  0
 10 16  1  0  0  0
M  END
> <minimizedAffinity>
-6.19235

$$$$
5FH8_5XK_A_801


 22 24  0  0  0  0  0  0  0  0999 V2000
    1.1118   27.0556    8.1442 C   0  0  0  0  0  0  0  0  0  0  0  0
   -1.8548   29.4743    9.7921 C   0  0  0  0  0  0  0  0  0  0  0  0
    3.6072   28.3188    7.7332 C   0  0  0  0  0  0  0  0  0  0  0  0
   -1.0795   30.7326   10.0456 C   0  0  0  0  0  0  0  0  0  0  0  0
    0.3012   30.5050    9.4509 C   0  0  0  0  0  0  0  0  0  0  0  0
    1.3594   28.3893    8.5389 C   0  0  0  0  0  0  0  0  0  0  0  0
    2.5819   29.0140    8.3324 C   0  0  0  0  0  0  0  0  0  0  0  0
    3.4140   27.0043    7.3268 C   0  0  0  0  0  0  0  0  0  0  0  0
    2.1827   26.3987    7.5063 C   0  0  0  0  0  0  0  0  0  0  0  0
   -1.2105   27.2661    8.9442 N   0  0  0  0  0  0  0  0  0  0  0  0
    1.9863   24.8487    6.7141 Cl  0  0  0  0  0  0  0  0  0  0  0  0
   -0.2233   26.4574    8.3930 C   0  0  0  0  0  0  0  0  0  0  0  0
   -0.4328   25.2597    8.2384 O   0  0  0  0  0  0  0  0  0  0  0  0
   -0.9450   28.4995    9.2703 C   0  0  0  0  0  0  0  0  0  0  0  0
    0.2948   29.0814    9.1181 N   0  0  0  0  0  0  0  0  0  0  0  0
   -2.1149   26.9051    9.0889 H   0  0  0  0  0  0  0  0  0  0  0  0
   -3.1550   29.2847    9.9902 C   0  0  0  0  0  0  0  0  0  0  0  0
   -4.2154   29.0583    8.9570 C   0  0  0  0  0  0  0  0  0  0  0  0
   -4.6026   26.5609    9.1752 C   0  0  0  0  0  0  0  0  0  0  0  0
   -5.1571   27.9636    9.3807 C   0  0  0  0  0  0  0  0  0  0  0  0
   -4.9668   30.4024    8.8296 C   0  0  0  0  0  0  0  0  0  0  0  0
   -5.6821   30.5393    7.5180 C   0  0  0  0  0  0  0  0  0  0  0  0
  8  3  2  0  0  0
  8  9  1  0  0  0
  3  7  1  0  0  0
 11  9  1  0  0  0
  9  1  2  0  0  0
  7  6  2  0  0  0
  1  6  1  0  0  0
  1 12  1  0  0  0
  6 15  1  0  0  0
 13 12  2  0  0  0
 12 10  1  0  0  0
 15  5  1  0  0  0
 15 14  1  0  0  0
 10 14  1  0  0  0
  5  4  2  0  0  0
 14  2  2  0  0  0
  4  2  1  0  0  0
  2 17  1  0  0  0
 22 21  1  0  0  0
 17 18  1  0  0  0
 21 18  1  0  0  0
 18 20  1  0  0  0
 20 19  1  0  0  0
 10 16  1  0  0  0
M  END
> <minimizedAffinity>
-6.15079

$$$$
5FH8_5XK_A_801


 22 24  0  0  0  0  0  0  0  0999 V2000
    2.0367   27.4863    7.9197 C   0  0  0  0  0  0  0  0  0  0  0  0
   -1.7587   27.5908    9.6374 C   0  0  0  0  0  0  0  0  0  0  0  0
    2.6650   25.1074    6.5277 C   0  0  0  0  0  0  0  0  0  0  0  0
   -2.3249   26.2940    9.1413 C   0  0  0  0  0  0  0  0  0  0  0  0
   -1.1910   25.5889    8.4140 C   0  0  0  0  0  0  0  0  0  0  0  0
    1.1044   26.4380    7.7526 C   0  0  0  0  0  0  0  0  0  0  0  0
    1.4125   25.2662    7.0749 C   0  0  0  0  0  0  0  0  0  0  0  0
    3.6178   26.1095    6.6644 C   0  0  0  0  0  0  0  0  0  0  0  0
    3.3141   27.2610    7.3692 C   0  0  0  0  0  0  0  0  0  0  0  0
    0.3688   28.7399    9.2327 N   0  0  0  0  0  0  0  0  0  0  0  0
    4.6711   28.3181    7.7002 Cl  0  0  0  0  0  0  0  0  0  0  0  0
    1.6359   28.7071    8.6620 C   0  0  0  0  0  0  0  0  0  0  0  0
    2.3379   29.7118    8.6788 O   0  0  0  0  0  0  0  0  0  0  0  0
   -0.4505   27.7390    9.0744 C   0  0  0  0  0  0  0  0  0  0  0  0
   -0.1490   26.6117    8.3416 N   0  0  0  0  0  0  0  0  0  0  0  0
    0.0889   29.5233    9.7591 H   0  0  0  0  0  0  0  0  0  0  0  0
   -2.3415   28.4510   10.4658 C   0  0  0  0  0  0  0  0  0  0  0  0
   -2.1869   28.5383   11.9529 C   0  0  0  0  0  0  0  0  0  0  0  0
   -2.6148   26.3535   13.1686 C   0  0  0  0  0  0  0  0  0  0  0  0
   -1.5950   27.2717   12.5096 C   0  0  0  0  0  0  0  0  0  0  0  0
   -1.2428   29.7355   12.2042 C   0  0  0  0  0  0  0  0  0  0  0  0
    0.0433   29.3261   12.8593 C   0  0  0  0  0  0  0  0  0  0  0  0
  8  3  2  0  0  0
  8  9  1  0  0  0
  3  7  1  0  0  0
 11  9  1  0  0  0
  9  1  2  0  0  0
  7  6  2  0  0  0
  1  6  1  0  0  0
  1 12  1  0  0  0
  6 15  1  0  0  0
 13 12  2  0  0  0
 12 10  1  0  0  0
 15  5  1  0  0  0
 15 14  1  0  0  0
 10 14  1  0  0  0
  5  4  2  0  0  0
 14  2  2  0  0  0
  4  2  1  0  0  0
  2 17  1  0  0  0
 22 21  1  0  0  0
 17 18  1  0  0  0
 21 18  1  0  0  0
 18 20  1  0  0  0
 20 19  1  0  0  0
 10 16  1  0  0  0
M  END
> <minimizedAffinity>
-6.11862

$$$$
