1HLK_113_A_2002


 26 28  0  0  0  0  0  0  0  0999 V2000
  -13.1271  -31.4913   18.2533 C   0  0  0  0  0  0  0  0  0  0  0  0
  -12.8662  -30.2947   17.5839 C   0  0  0  0  0  0  0  0  0  0  0  0
  -11.5521  -29.8348   17.5160 C   0  0  0  0  0  0  0  0  0  0  0  0
  -10.5191  -30.5340   18.1696 C   0  0  0  0  0  0  0  0  0  0  0  0
  -10.8659  -31.5277   19.1237 C   0  0  0  0  0  0  0  0  0  0  0  0
  -12.1743  -32.0611   19.0954 C   0  0  0  0  0  0  0  0  0  0  0  0
  -11.2804  -28.6920   16.7942 O   0  0  0  0  0  0  0  0  0  0  0  0
  -10.0046  -28.1737   16.7078 C   0  0  0  0  0  0  0  0  0  0  0  0
   -8.9123  -28.8421   17.1514 C   0  0  0  0  0  0  0  0  0  0  0  0
   -9.1300  -30.1822   17.8023 C   0  0  0  0  0  0  0  0  0  0  0  0
   -9.9311  -26.8029   16.0841 C   0  0  0  0  0  0  0  0  0  0  0  0
   -8.6524  -26.0672   16.5128 C   0  0  0  0  0  0  0  0  0  0  0  0
   -7.5103  -26.9259   16.4205 O   0  0  0  0  0  0  0  0  0  0  0  0
   -7.5194  -28.2432   16.9861 C   0  0  0  0  0  0  0  0  0  0  0  0
  -12.6032  -33.1364   19.8575 O   0  0  0  0  0  0  0  0  0  0  0  0
  -14.3222  -32.1660   18.1079 O   0  0  0  0  0  0  0  0  0  0  0  0
   -8.3755  -24.8143   15.6715 C   0  0  0  0  0  0  0  0  0  0  0  0
   -8.1743  -30.9040   17.9733 O   0  0  0  0  0  0  0  0  0  0  0  0
  -13.4878  -33.4373   19.7872 H   0  0  0  0  0  0  0  0  0  0  0  0
  -14.9914  -31.8191   17.5513 H   0  0  0  0  0  0  0  0  0  0  0  0
   -9.9223  -32.0192   20.1463 C   0  0  0  0  0  0  0  0  0  0  0  0
   -9.3840  -31.0679   20.9258 O   0  0  0  0  0  0  0  0  0  0  0  0
   -9.6620  -33.1927   20.2758 O   0  0  0  0  0  0  0  0  0  0  0  0
   -9.6118  -30.1688   20.7929 H   0  0  0  0  0  0  0  0  0  0  0  0
   -6.7302  -28.3147   18.1727 O   0  0  0  0  0  0  0  0  0  0  0  0
   -7.0841  -27.6103   19.3427 C   0  0  0  0  0  0  0  0  0  0  0  0
  1  2  2  0  0  0
  1  6  1  0  0  0
  1 16  1  0  0  0
  2  3  1  0  0  0
  3  4  2  0  0  0
  3  7  1  0  0  0
  4  5  1  0  0  0
  4 10  1  0  0  0
  5  6  2  0  0  0
  5 21  1  0  0  0
  6 15  1  0  0  0
  7  8  1  0  0  0
  8  9  2  0  0  0
  8 11  1  0  0  0
  9 10  1  0  0  0
  9 14  1  0  0  0
 10 18  2  0  0  0
 11 12  1  0  0  0
 12 13  1  0  0  0
 12 17  1  0  0  0
 13 14  1  0  0  0
 14 25  1  0  0  0
 21 22  1  0  0  0
 21 23  2  0  0  0
 25 26  1  0  0  0
 15 19  1  0  0  0
 16 20  1  0  0  0
 22 24  1  0  0  0
M  END
> <minimizedAffinity>
-8.13565

$$$$
1HLK_113_A_2002


 26 28  0  0  0  0  0  0  0  0999 V2000
   -8.8612  -24.9047   17.9889 C   0  0  0  0  0  0  0  0  0  0  0  0
   -9.2545  -25.7381   16.9407 C   0  0  0  0  0  0  0  0  0  0  0  0
   -9.1232  -27.1174   17.0925 C   0  0  0  0  0  0  0  0  0  0  0  0
   -8.5417  -27.6526   18.2582 C   0  0  0  0  0  0  0  0  0  0  0  0
   -7.8366  -26.7807   19.1304 C   0  0  0  0  0  0  0  0  0  0  0  0
   -8.0761  -25.3914   19.0323 C   0  0  0  0  0  0  0  0  0  0  0  0
   -9.5777  -27.9465   16.0891 O   0  0  0  0  0  0  0  0  0  0  0  0
   -9.4558  -29.3185   16.1697 C   0  0  0  0  0  0  0  0  0  0  0  0
   -9.0684  -29.9528   17.3030 C   0  0  0  0  0  0  0  0  0  0  0  0
   -8.7183  -29.1020   18.4948 C   0  0  0  0  0  0  0  0  0  0  0  0
   -9.7849  -30.0483   14.8920 C   0  0  0  0  0  0  0  0  0  0  0  0
   -9.1162  -31.4310   14.8559 C   0  0  0  0  0  0  0  0  0  0  0  0
   -9.2862  -32.1163   16.1015 O   0  0  0  0  0  0  0  0  0  0  0  0
   -8.9981  -31.4756   17.3512 C   0  0  0  0  0  0  0  0  0  0  0  0
   -7.5814  -24.4426   19.9133 O   0  0  0  0  0  0  0  0  0  0  0  0
   -9.2342  -23.5773   18.0486 O   0  0  0  0  0  0  0  0  0  0  0  0
   -9.6650  -32.3290   13.7393 C   0  0  0  0  0  0  0  0  0  0  0  0
   -8.6187  -29.6349   19.5764 O   0  0  0  0  0  0  0  0  0  0  0  0
   -7.7814  -23.5360   19.7863 H   0  0  0  0  0  0  0  0  0  0  0  0
   -9.7622  -23.2080   17.3682 H   0  0  0  0  0  0  0  0  0  0  0  0
   -6.8604  -27.2629   20.1264 C   0  0  0  0  0  0  0  0  0  0  0  0
   -7.3078  -27.2918   21.3919 O   0  0  0  0  0  0  0  0  0  0  0  0
   -5.7443  -27.6135   19.8214 O   0  0  0  0  0  0  0  0  0  0  0  0
   -8.1803  -27.0113   21.5868 H   0  0  0  0  0  0  0  0  0  0  0  0
   -7.7902  -31.9664   17.9310 O   0  0  0  0  0  0  0  0  0  0  0  0
   -7.7317  -33.2216   18.5725 C   0  0  0  0  0  0  0  0  0  0  0  0
  1  2  2  0  0  0
  1  6  1  0  0  0
  1 16  1  0  0  0
  2  3  1  0  0  0
  3  4  2  0  0  0
  3  7  1  0  0  0
  4  5  1  0  0  0
  4 10  1  0  0  0
  5  6  2  0  0  0
  5 21  1  0  0  0
  6 15  1  0  0  0
  7  8  1  0  0  0
  8  9  2  0  0  0
  8 11  1  0  0  0
  9 10  1  0  0  0
  9 14  1  0  0  0
 10 18  2  0  0  0
 11 12  1  0  0  0
 12 13  1  0  0  0
 12 17  1  0  0  0
 13 14  1  0  0  0
 14 25  1  0  0  0
 21 22  1  0  0  0
 21 23  2  0  0  0
 25 26  1  0  0  0
 15 19  1  0  0  0
 16 20  1  0  0  0
 22 24  1  0  0  0
M  END
> <minimizedAffinity>
-8.05696

$$$$
1HLK_113_A_2002


 26 28  0  0  0  0  0  0  0  0999 V2000
   -8.8152  -25.7198   17.8183 C   0  0  0  0  0  0  0  0  0  0  0  0
   -9.4375  -26.7336   17.0884 C   0  0  0  0  0  0  0  0  0  0  0  0
   -9.4032  -28.0364   17.5827 C   0  0  0  0  0  0  0  0  0  0  0  0
   -8.6952  -28.3306   18.7640 C   0  0  0  0  0  0  0  0  0  0  0  0
   -7.7904  -27.3624   19.2756 C   0  0  0  0  0  0  0  0  0  0  0  0
   -7.9218  -26.0231   18.8438 C   0  0  0  0  0  0  0  0  0  0  0  0
  -10.0783  -29.0275   16.9023 O   0  0  0  0  0  0  0  0  0  0  0  0
  -10.0638  -30.3399   17.3278 C   0  0  0  0  0  0  0  0  0  0  0  0
   -9.5603  -30.7134   18.5294 C   0  0  0  0  0  0  0  0  0  0  0  0
   -8.9568  -29.6415   19.3975 C   0  0  0  0  0  0  0  0  0  0  0  0
  -10.6497  -31.3196   16.3428 C   0  0  0  0  0  0  0  0  0  0  0  0
  -10.1163  -32.7391   16.5895 C   0  0  0  0  0  0  0  0  0  0  0  0
  -10.1482  -33.0646   17.9835 O   0  0  0  0  0  0  0  0  0  0  0  0
   -9.6146  -32.1723   18.9706 C   0  0  0  0  0  0  0  0  0  0  0  0
   -7.2160  -24.9528   19.3704 O   0  0  0  0  0  0  0  0  0  0  0  0
   -9.0588  -24.3841   17.5709 O   0  0  0  0  0  0  0  0  0  0  0  0
  -10.9077  -33.8129   15.8314 C   0  0  0  0  0  0  0  0  0  0  0  0
   -8.7359  -29.8950   20.5597 O   0  0  0  0  0  0  0  0  0  0  0  0
   -7.3546  -24.0893   19.0341 H   0  0  0  0  0  0  0  0  0  0  0  0
   -9.6527  -24.1344   16.8905 H   0  0  0  0  0  0  0  0  0  0  0  0
   -6.7159  -27.6969   20.2301 C   0  0  0  0  0  0  0  0  0  0  0  0
   -6.9256  -27.2813   21.4894 O   0  0  0  0  0  0  0  0  0  0  0  0
   -5.7255  -28.3076   19.9016 O   0  0  0  0  0  0  0  0  0  0  0  0
   -7.7069  -26.8104   21.7033 H   0  0  0  0  0  0  0  0  0  0  0  0
   -8.3778  -32.6479   19.5000 O   0  0  0  0  0  0  0  0  0  0  0  0
   -7.2746  -32.9315   18.6675 C   0  0  0  0  0  0  0  0  0  0  0  0
  1  2  2  0  0  0
  1  6  1  0  0  0
  1 16  1  0  0  0
  2  3  1  0  0  0
  3  4  2  0  0  0
  3  7  1  0  0  0
  4  5  1  0  0  0
  4 10  1  0  0  0
  5  6  2  0  0  0
  5 21  1  0  0  0
  6 15  1  0  0  0
  7  8  1  0  0  0
  8  9  2  0  0  0
  8 11  1  0  0  0
  9 10  1  0  0  0
  9 14  1  0  0  0
 10 18  2  0  0  0
 11 12  1  0  0  0
 12 13  1  0  0  0
 12 17  1  0  0  0
 13 14  1  0  0  0
 14 25  1  0  0  0
 21 22  1  0  0  0
 21 23  2  0  0  0
 25 26  1  0  0  0
 15 19  1  0  0  0
 16 20  1  0  0  0
 22 24  1  0  0  0
M  END
> <minimizedAffinity>
-8.05495

$$$$
1HLK_113_A_2002


 26 28  0  0  0  0  0  0  0  0999 V2000
  -12.4523  -31.7785   18.1919 C   0  0  0  0  0  0  0  0  0  0  0  0
  -12.3372  -30.4696   17.7210 C   0  0  0  0  0  0  0  0  0  0  0  0
  -11.1284  -29.7971   17.8923 C   0  0  0  0  0  0  0  0  0  0  0  0
  -10.0669  -30.4078   18.5876 C   0  0  0  0  0  0  0  0  0  0  0  0
  -10.3346  -31.5748   19.3521 C   0  0  0  0  0  0  0  0  0  0  0  0
  -11.5138  -32.3039   19.0779 C   0  0  0  0  0  0  0  0  0  0  0  0
  -10.9872  -28.5312   17.3644 O   0  0  0  0  0  0  0  0  0  0  0  0
   -9.8242  -27.8052   17.5197 C   0  0  0  0  0  0  0  0  0  0  0  0
   -8.6867  -28.3452   18.0208 C   0  0  0  0  0  0  0  0  0  0  0  0
   -8.7315  -29.7842   18.4613 C   0  0  0  0  0  0  0  0  0  0  0  0
   -9.9288  -26.3638   17.0899 C   0  0  0  0  0  0  0  0  0  0  0  0
   -8.8604  -25.5014   17.7791 C   0  0  0  0  0  0  0  0  0  0  0  0
   -7.5794  -26.1395   17.7364 O   0  0  0  0  0  0  0  0  0  0  0  0
   -7.4149  -27.5098   18.1246 C   0  0  0  0  0  0  0  0  0  0  0  0
  -11.8254  -33.5354   19.6322 O   0  0  0  0  0  0  0  0  0  0  0  0
  -13.4820  -32.6097   17.8003 O   0  0  0  0  0  0  0  0  0  0  0  0
   -8.7206  -24.1096   17.1485 C   0  0  0  0  0  0  0  0  0  0  0  0
   -7.6869  -30.3581   18.6691 O   0  0  0  0  0  0  0  0  0  0  0  0
  -12.6276  -33.9625   19.4041 H   0  0  0  0  0  0  0  0  0  0  0  0
  -14.1355  -32.2978   17.2056 H   0  0  0  0  0  0  0  0  0  0  0  0
   -9.4396  -32.0519   20.4240 C   0  0  0  0  0  0  0  0  0  0  0  0
   -8.5503  -32.9846   20.0477 O   0  0  0  0  0  0  0  0  0  0  0  0
   -9.4993  -31.6264   21.5540 O   0  0  0  0  0  0  0  0  0  0  0  0
   -8.5366  -33.2883   19.1614 H   0  0  0  0  0  0  0  0  0  0  0  0
   -6.7649  -27.6267   19.3894 O   0  0  0  0  0  0  0  0  0  0  0  0
   -7.3562  -27.1418   20.5751 C   0  0  0  0  0  0  0  0  0  0  0  0
  1  2  2  0  0  0
  1  6  1  0  0  0
  1 16  1  0  0  0
  2  3  1  0  0  0
  3  4  2  0  0  0
  3  7  1  0  0  0
  4  5  1  0  0  0
  4 10  1  0  0  0
  5  6  2  0  0  0
  5 21  1  0  0  0
  6 15  1  0  0  0
  7  8  1  0  0  0
  8  9  2  0  0  0
  8 11  1  0  0  0
  9 10  1  0  0  0
  9 14  1  0  0  0
 10 18  2  0  0  0
 11 12  1  0  0  0
 12 13  1  0  0  0
 12 17  1  0  0  0
 13 14  1  0  0  0
 14 25  1  0  0  0
 21 22  1  0  0  0
 21 23  2  0  0  0
 25 26  1  0  0  0
 15 19  1  0  0  0
 16 20  1  0  0  0
 22 24  1  0  0  0
M  END
> <minimizedAffinity>
-8.03032

$$$$
1HLK_113_A_2002


 26 28  0  0  0  0  0  0  0  0999 V2000
   -9.9689  -31.3131   15.1975 C   0  0  0  0  0  0  0  0  0  0  0  0
   -9.8811  -29.9352   14.9939 C   0  0  0  0  0  0  0  0  0  0  0  0
   -9.3578  -29.1371   16.0098 C   0  0  0  0  0  0  0  0  0  0  0  0
   -8.9876  -29.7075   17.2431 C   0  0  0  0  0  0  0  0  0  0  0  0
   -9.4184  -31.0281   17.5401 C   0  0  0  0  0  0  0  0  0  0  0  0
   -9.8357  -31.8564   16.4738 C   0  0  0  0  0  0  0  0  0  0  0  0
   -9.2020  -27.7858   15.7851 O   0  0  0  0  0  0  0  0  0  0  0  0
   -8.7112  -26.9396   16.7582 C   0  0  0  0  0  0  0  0  0  0  0  0
   -8.1709  -27.3920   17.9158 C   0  0  0  0  0  0  0  0  0  0  0  0
   -8.1587  -28.8798   18.1465 C   0  0  0  0  0  0  0  0  0  0  0  0
   -8.8315  -25.4738   16.4260 C   0  0  0  0  0  0  0  0  0  0  0  0
   -8.8123  -24.6140   17.6991 C   0  0  0  0  0  0  0  0  0  0  0  0
   -7.7701  -25.0338   18.5866 O   0  0  0  0  0  0  0  0  0  0  0  0
   -7.5980  -26.4136   18.9359 C   0  0  0  0  0  0  0  0  0  0  0  0
  -10.1324  -33.2050   16.5934 O   0  0  0  0  0  0  0  0  0  0  0  0
  -10.1789  -32.1951   14.1571 O   0  0  0  0  0  0  0  0  0  0  0  0
   -8.6160  -23.1207   17.4064 C   0  0  0  0  0  0  0  0  0  0  0  0
   -7.4663  -29.3216   19.0348 O   0  0  0  0  0  0  0  0  0  0  0  0
  -10.4039  -33.6935   15.8413 H   0  0  0  0  0  0  0  0  0  0  0  0
  -10.2741  -31.8735   13.2822 H   0  0  0  0  0  0  0  0  0  0  0  0
   -9.4567  -31.5675   18.9132 C   0  0  0  0  0  0  0  0  0  0  0  0
   -8.3193  -32.1487   19.3266 O   0  0  0  0  0  0  0  0  0  0  0  0
  -10.4379  -31.4831   19.6144 O   0  0  0  0  0  0  0  0  0  0  0  0
   -7.5805  -32.1940   18.7520 H   0  0  0  0  0  0  0  0  0  0  0  0
   -8.0236  -26.6780   20.2719 O   0  0  0  0  0  0  0  0  0  0  0  0
   -7.1494  -27.2254   21.2345 C   0  0  0  0  0  0  0  0  0  0  0  0
  1  2  2  0  0  0
  1  6  1  0  0  0
  1 16  1  0  0  0
  2  3  1  0  0  0
  3  4  2  0  0  0
  3  7  1  0  0  0
  4  5  1  0  0  0
  4 10  1  0  0  0
  5  6  2  0  0  0
  5 21  1  0  0  0
  6 15  1  0  0  0
  7  8  1  0  0  0
  8  9  2  0  0  0
  8 11  1  0  0  0
  9 10  1  0  0  0
  9 14  1  0  0  0
 10 18  2  0  0  0
 11 12  1  0  0  0
 12 13  1  0  0  0
 12 17  1  0  0  0
 13 14  1  0  0  0
 14 25  1  0  0  0
 21 22  1  0  0  0
 21 23  2  0  0  0
 25 26  1  0  0  0
 15 19  1  0  0  0
 16 20  1  0  0  0
 22 24  1  0  0  0
M  END
> <minimizedAffinity>
-7.13790

$$$$
1HLK_113_A_2002


 26 28  0  0  0  0  0  0  0  0999 V2000
   -9.1962  -25.7607   17.6890 C   0  0  0  0  0  0  0  0  0  0  0  0
  -10.0396  -26.5727   16.9291 C   0  0  0  0  0  0  0  0  0  0  0  0
  -10.1390  -27.9255   17.2498 C   0  0  0  0  0  0  0  0  0  0  0  0
   -9.3502  -28.4721   18.2806 C   0  0  0  0  0  0  0  0  0  0  0  0
   -8.2610  -27.7106   18.7823 C   0  0  0  0  0  0  0  0  0  0  0  0
   -8.2446  -26.3182   18.5406 C   0  0  0  0  0  0  0  0  0  0  0  0
  -11.0253  -28.7153   16.5486 O   0  0  0  0  0  0  0  0  0  0  0  0
  -11.1534  -30.0653   16.8032 C   0  0  0  0  0  0  0  0  0  0  0  0
  -10.5748  -30.6661   17.8713 C   0  0  0  0  0  0  0  0  0  0  0  0
   -9.7255  -29.8142   18.7767 C   0  0  0  0  0  0  0  0  0  0  0  0
  -11.9854  -30.8127   15.7919 C   0  0  0  0  0  0  0  0  0  0  0  0
  -11.6399  -32.3096   15.7881 C   0  0  0  0  0  0  0  0  0  0  0  0
  -11.5583  -32.8212   17.1229 O   0  0  0  0  0  0  0  0  0  0  0  0
  -10.7902  -32.1532   18.1324 C   0  0  0  0  0  0  0  0  0  0  0  0
   -7.3343  -25.4330   19.0962 O   0  0  0  0  0  0  0  0  0  0  0  0
   -9.2693  -24.3833   17.6430 O   0  0  0  0  0  0  0  0  0  0  0  0
  -12.6615  -33.1547   15.0157 C   0  0  0  0  0  0  0  0  0  0  0  0
   -9.4116  -30.2551   19.8587 O   0  0  0  0  0  0  0  0  0  0  0  0
   -7.3833  -24.5201   18.8906 H   0  0  0  0  0  0  0  0  0  0  0  0
   -9.8947  -23.9657   17.0841 H   0  0  0  0  0  0  0  0  0  0  0  0
   -7.1441  -28.3121   19.5362 C   0  0  0  0  0  0  0  0  0  0  0  0
   -6.5458  -29.3510   18.9319 O   0  0  0  0  0  0  0  0  0  0  0  0
   -6.7907  -27.8928   20.6136 O   0  0  0  0  0  0  0  0  0  0  0  0
   -6.8502  -29.6457   18.0962 H   0  0  0  0  0  0  0  0  0  0  0  0
   -9.5833  -32.8544   18.4291 O   0  0  0  0  0  0  0  0  0  0  0  0
   -9.4642  -34.2454   18.2253 C   0  0  0  0  0  0  0  0  0  0  0  0
  1  2  2  0  0  0
  1  6  1  0  0  0
  1 16  1  0  0  0
  2  3  1  0  0  0
  3  4  2  0  0  0
  3  7  1  0  0  0
  4  5  1  0  0  0
  4 10  1  0  0  0
  5  6  2  0  0  0
  5 21  1  0  0  0
  6 15  1  0  0  0
  7  8  1  0  0  0
  8  9  2  0  0  0
  8 11  1  0  0  0
  9 10  1  0  0  0
  9 14  1  0  0  0
 10 18  2  0  0  0
 11 12  1  0  0  0
 12 13  1  0  0  0
 12 17  1  0  0  0
 13 14  1  0  0  0
 14 25  1  0  0  0
 21 22  1  0  0  0
 21 23  2  0  0  0
 25 26  1  0  0  0
 15 19  1  0  0  0
 16 20  1  0  0  0
 22 24  1  0  0  0
M  END
> <minimizedAffinity>
-7.10558

$$$$
1HLK_113_A_2002


 26 28  0  0  0  0  0  0  0  0999 V2000
   -7.4196  -27.1388   19.2066 C   0  0  0  0  0  0  0  0  0  0  0  0
   -7.1538  -28.5032   19.3319 C   0  0  0  0  0  0  0  0  0  0  0  0
   -7.7941  -29.3948   18.4729 C   0  0  0  0  0  0  0  0  0  0  0  0
   -8.7416  -28.9286   17.5411 C   0  0  0  0  0  0  0  0  0  0  0  0
   -9.2447  -27.6078   17.6832 C   0  0  0  0  0  0  0  0  0  0  0  0
   -8.5123  -26.6888   18.4683 C   0  0  0  0  0  0  0  0  0  0  0  0
   -7.4795  -30.7352   18.5450 O   0  0  0  0  0  0  0  0  0  0  0  0
   -8.0948  -31.6701   17.7381 C   0  0  0  0  0  0  0  0  0  0  0  0
   -8.8940  -31.3262   16.6989 C   0  0  0  0  0  0  0  0  0  0  0  0
   -9.1418  -29.8599   16.4637 C   0  0  0  0  0  0  0  0  0  0  0  0
   -7.8065  -33.1017   18.1134 C   0  0  0  0  0  0  0  0  0  0  0  0
   -8.9030  -34.0427   17.5913 C   0  0  0  0  0  0  0  0  0  0  0  0
   -9.2323  -33.7424   16.2306 O   0  0  0  0  0  0  0  0  0  0  0  0
   -9.5095  -32.4006   15.8085 C   0  0  0  0  0  0  0  0  0  0  0  0
   -8.7974  -25.3362   18.5690 O   0  0  0  0  0  0  0  0  0  0  0  0
   -6.6176  -26.1799   19.7915 O   0  0  0  0  0  0  0  0  0  0  0  0
   -8.5049  -35.5225   17.6696 C   0  0  0  0  0  0  0  0  0  0  0  0
   -9.6317  -29.5177   15.4118 O   0  0  0  0  0  0  0  0  0  0  0  0
   -8.2674  -24.7847   19.1102 H   0  0  0  0  0  0  0  0  0  0  0  0
   -5.8719  -26.4375   20.2969 H   0  0  0  0  0  0  0  0  0  0  0  0
  -10.5015  -27.1582   17.0539 C   0  0  0  0  0  0  0  0  0  0  0  0
  -11.5750  -27.9178   17.3241 O   0  0  0  0  0  0  0  0  0  0  0  0
  -10.5589  -26.1736   16.3547 O   0  0  0  0  0  0  0  0  0  0  0  0
  -11.4884  -28.6736   17.8710 H   0  0  0  0  0  0  0  0  0  0  0  0
  -10.9007  -32.2004   15.5624 O   0  0  0  0  0  0  0  0  0  0  0  0
  -11.8583  -32.2992   16.5938 C   0  0  0  0  0  0  0  0  0  0  0  0
  1  2  2  0  0  0
  1  6  1  0  0  0
  1 16  1  0  0  0
  2  3  1  0  0  0
  3  4  2  0  0  0
  3  7  1  0  0  0
  4  5  1  0  0  0
  4 10  1  0  0  0
  5  6  2  0  0  0
  5 21  1  0  0  0
  6 15  1  0  0  0
  7  8  1  0  0  0
  8  9  2  0  0  0
  8 11  1  0  0  0
  9 10  1  0  0  0
  9 14  1  0  0  0
 10 18  2  0  0  0
 11 12  1  0  0  0
 12 13  1  0  0  0
 12 17  1  0  0  0
 13 14  1  0  0  0
 14 25  1  0  0  0
 21 22  1  0  0  0
 21 23  2  0  0  0
 25 26  1  0  0  0
 15 19  1  0  0  0
 16 20  1  0  0  0
 22 24  1  0  0  0
M  END
> <minimizedAffinity>
-6.87587

$$$$
1HLK_113_A_2002


 26 28  0  0  0  0  0  0  0  0999 V2000
   -7.5044  -27.5472   19.4017 C   0  0  0  0  0  0  0  0  0  0  0  0
   -8.0277  -28.7945   19.7458 C   0  0  0  0  0  0  0  0  0  0  0  0
   -8.9826  -29.3760   18.9134 C   0  0  0  0  0  0  0  0  0  0  0  0
   -9.4563  -28.6839   17.7820 C   0  0  0  0  0  0  0  0  0  0  0  0
   -9.1752  -27.2965   17.6645 C   0  0  0  0  0  0  0  0  0  0  0  0
   -8.1229  -26.7546   18.4368 C   0  0  0  0  0  0  0  0  0  0  0  0
   -9.4481  -30.6393   19.2108 O   0  0  0  0  0  0  0  0  0  0  0  0
  -10.4092  -31.2594   18.4391 C   0  0  0  0  0  0  0  0  0  0  0  0
  -10.8167  -30.7673   17.2438 C   0  0  0  0  0  0  0  0  0  0  0  0
  -10.2151  -29.4666   16.7821 C   0  0  0  0  0  0  0  0  0  0  0  0
  -10.9685  -32.5242   19.0400 C   0  0  0  0  0  0  0  0  0  0  0  0
  -12.3573  -32.8431   18.4658 C   0  0  0  0  0  0  0  0  0  0  0  0
  -12.3707  -32.6950   17.0417 O   0  0  0  0  0  0  0  0  0  0  0  0
  -11.8471  -31.5201   16.4086 C   0  0  0  0  0  0  0  0  0  0  0  0
   -7.6387  -25.4619   18.3117 O   0  0  0  0  0  0  0  0  0  0  0  0
   -6.3574  -27.0482   19.9849 O   0  0  0  0  0  0  0  0  0  0  0  0
  -12.8286  -34.2642   18.8014 C   0  0  0  0  0  0  0  0  0  0  0  0
  -10.3632  -29.1388   15.6271 O   0  0  0  0  0  0  0  0  0  0  0  0
   -6.9366  -25.1696   18.8589 H   0  0  0  0  0  0  0  0  0  0  0  0
   -5.9088  -27.5477   20.6385 H   0  0  0  0  0  0  0  0  0  0  0  0
   -9.9394  -26.3974   16.7784 C   0  0  0  0  0  0  0  0  0  0  0  0
   -9.3680  -26.1527   15.5885 O   0  0  0  0  0  0  0  0  0  0  0  0
  -11.0049  -25.9248   17.0994 O   0  0  0  0  0  0  0  0  0  0  0  0
   -8.5405  -26.5386   15.3779 H   0  0  0  0  0  0  0  0  0  0  0  0
  -12.8871  -30.6821   15.9064 O   0  0  0  0  0  0  0  0  0  0  0  0
  -13.7512  -31.1087   14.8759 C   0  0  0  0  0  0  0  0  0  0  0  0
  1  2  2  0  0  0
  1  6  1  0  0  0
  1 16  1  0  0  0
  2  3  1  0  0  0
  3  4  2  0  0  0
  3  7  1  0  0  0
  4  5  1  0  0  0
  4 10  1  0  0  0
  5  6  2  0  0  0
  5 21  1  0  0  0
  6 15  1  0  0  0
  7  8  1  0  0  0
  8  9  2  0  0  0
  8 11  1  0  0  0
  9 10  1  0  0  0
  9 14  1  0  0  0
 10 18  2  0  0  0
 11 12  1  0  0  0
 12 13  1  0  0  0
 12 17  1  0  0  0
 13 14  1  0  0  0
 14 25  1  0  0  0
 21 22  1  0  0  0
 21 23  2  0  0  0
 25 26  1  0  0  0
 15 19  1  0  0  0
 16 20  1  0  0  0
 22 24  1  0  0  0
M  END
> <minimizedAffinity>
-6.78196

$$$$
1HLK_113_A_2002


 26 28  0  0  0  0  0  0  0  0999 V2000
  -10.5422  -27.1357   17.2401 C   0  0  0  0  0  0  0  0  0  0  0  0
  -11.4788  -28.1680   17.1687 C   0  0  0  0  0  0  0  0  0  0  0  0
  -11.1295  -29.4276   17.6526 C   0  0  0  0  0  0  0  0  0  0  0  0
   -9.8310  -29.6664   18.1428 C   0  0  0  0  0  0  0  0  0  0  0  0
   -8.8140  -28.7123   17.8720 C   0  0  0  0  0  0  0  0  0  0  0  0
   -9.1990  -27.4061   17.4941 C   0  0  0  0  0  0  0  0  0  0  0  0
  -12.0757  -30.4304   17.6506 O   0  0  0  0  0  0  0  0  0  0  0  0
  -11.7852  -31.7039   18.0950 C   0  0  0  0  0  0  0  0  0  0  0  0
  -10.6315  -32.0087   18.7375 C   0  0  0  0  0  0  0  0  0  0  0  0
   -9.6222  -30.9067   18.9213 C   0  0  0  0  0  0  0  0  0  0  0  0
  -12.8556  -32.7244   17.8012 C   0  0  0  0  0  0  0  0  0  0  0  0
  -12.2764  -34.1473   17.7906 C   0  0  0  0  0  0  0  0  0  0  0  0
  -11.4151  -34.3595   18.9146 O   0  0  0  0  0  0  0  0  0  0  0  0
  -10.3832  -33.4230   19.2514 C   0  0  0  0  0  0  0  0  0  0  0  0
   -8.3272  -26.3383   17.3507 O   0  0  0  0  0  0  0  0  0  0  0  0
  -10.8972  -25.8123   17.0751 O   0  0  0  0  0  0  0  0  0  0  0  0
  -13.3612  -35.2322   17.8101 C   0  0  0  0  0  0  0  0  0  0  0  0
   -8.7129  -31.0795   19.7004 O   0  0  0  0  0  0  0  0  0  0  0  0
   -8.6538  -25.4976   17.0965 H   0  0  0  0  0  0  0  0  0  0  0  0
  -11.7896  -25.5846   16.9026 H   0  0  0  0  0  0  0  0  0  0  0  0
   -7.3754  -29.0294   17.9601 C   0  0  0  0  0  0  0  0  0  0  0  0
   -6.8047  -28.7529   19.1434 O   0  0  0  0  0  0  0  0  0  0  0  0
   -6.7612  -29.5105   17.0366 O   0  0  0  0  0  0  0  0  0  0  0  0
   -7.3159  -28.3800   19.8344 H   0  0  0  0  0  0  0  0  0  0  0  0
   -9.0877  -33.9230   18.9234 O   0  0  0  0  0  0  0  0  0  0  0  0
   -8.7248  -34.2283   17.5947 C   0  0  0  0  0  0  0  0  0  0  0  0
  1  2  2  0  0  0
  1  6  1  0  0  0
  1 16  1  0  0  0
  2  3  1  0  0  0
  3  4  2  0  0  0
  3  7  1  0  0  0
  4  5  1  0  0  0
  4 10  1  0  0  0
  5  6  2  0  0  0
  5 21  1  0  0  0
  6 15  1  0  0  0
  7  8  1  0  0  0
  8  9  2  0  0  0
  8 11  1  0  0  0
  9 10  1  0  0  0
  9 14  1  0  0  0
 10 18  2  0  0  0
 11 12  1  0  0  0
 12 13  1  0  0  0
 12 17  1  0  0  0
 13 14  1  0  0  0
 14 25  1  0  0  0
 21 22  1  0  0  0
 21 23  2  0  0  0
 25 26  1  0  0  0
 15 19  1  0  0  0
 16 20  1  0  0  0
 22 24  1  0  0  0
M  END
> <minimizedAffinity>
-6.76875

$$$$
1HLK_113_A_2002


 26 28  0  0  0  0  0  0  0  0999 V2000
   -7.4285  -28.0419   18.9832 C   0  0  0  0  0  0  0  0  0  0  0  0
   -7.3863  -29.4346   19.0642 C   0  0  0  0  0  0  0  0  0  0  0  0
   -8.2309  -30.1818   18.2449 C   0  0  0  0  0  0  0  0  0  0  0  0
   -9.1555  -29.5375   17.4002 C   0  0  0  0  0  0  0  0  0  0  0  0
   -9.4177  -28.1564   17.6040 C   0  0  0  0  0  0  0  0  0  0  0  0
   -8.4836  -27.3952   18.3427 C   0  0  0  0  0  0  0  0  0  0  0  0
   -8.1409  -31.5574   18.2695 O   0  0  0  0  0  0  0  0  0  0  0  0
   -8.9641  -32.3529   17.4993 C   0  0  0  0  0  0  0  0  0  0  0  0
   -9.7716  -31.8506   16.5337 C   0  0  0  0  0  0  0  0  0  0  0  0
   -9.7874  -30.3572   16.3433 C   0  0  0  0  0  0  0  0  0  0  0  0
   -8.8920  -33.8230   17.8266 C   0  0  0  0  0  0  0  0  0  0  0  0
  -10.1674  -34.5533   17.3790 C   0  0  0  0  0  0  0  0  0  0  0  0
  -10.5450  -34.1623   16.0544 O   0  0  0  0  0  0  0  0  0  0  0  0
  -10.6248  -32.7812   15.6781 C   0  0  0  0  0  0  0  0  0  0  0  0
   -8.5294  -26.0177   18.4883 O   0  0  0  0  0  0  0  0  0  0  0  0
   -6.4348  -27.2470   19.5174 O   0  0  0  0  0  0  0  0  0  0  0  0
  -10.0181  -36.0802   17.4007 C   0  0  0  0  0  0  0  0  0  0  0  0
  -10.2921  -29.9075   15.3400 O   0  0  0  0  0  0  0  0  0  0  0  0
   -7.8745  -25.5780   18.9941 H   0  0  0  0  0  0  0  0  0  0  0  0
   -5.7063  -27.6396   19.9569 H   0  0  0  0  0  0  0  0  0  0  0  0
  -10.6257  -27.4862   17.0854 C   0  0  0  0  0  0  0  0  0  0  0  0
  -11.7836  -28.1034   17.3698 O   0  0  0  0  0  0  0  0  0  0  0  0
  -10.5742  -26.4534   16.4590 O   0  0  0  0  0  0  0  0  0  0  0  0
  -11.7806  -28.9030   17.8583 H   0  0  0  0  0  0  0  0  0  0  0  0
  -11.9775  -32.3459   15.5481 O   0  0  0  0  0  0  0  0  0  0  0  0
  -13.0094  -33.2323   15.1742 C   0  0  0  0  0  0  0  0  0  0  0  0
  1  2  2  0  0  0
  1  6  1  0  0  0
  1 16  1  0  0  0
  2  3  1  0  0  0
  3  4  2  0  0  0
  3  7  1  0  0  0
  4  5  1  0  0  0
  4 10  1  0  0  0
  5  6  2  0  0  0
  5 21  1  0  0  0
  6 15  1  0  0  0
  7  8  1  0  0  0
  8  9  2  0  0  0
  8 11  1  0  0  0
  9 10  1  0  0  0
  9 14  1  0  0  0
 10 18  2  0  0  0
 11 12  1  0  0  0
 12 13  1  0  0  0
 12 17  1  0  0  0
 13 14  1  0  0  0
 14 25  1  0  0  0
 21 22  1  0  0  0
 21 23  2  0  0  0
 25 26  1  0  0  0
 15 19  1  0  0  0
 16 20  1  0  0  0
 22 24  1  0  0  0
M  END
> <minimizedAffinity>
-6.39613

$$$$
