2POU_I7A_A_1000


 20 20  0  0  0  0  0  0  0  0999 V2000
   -4.6942    2.2256   13.5177 C   0  0  0  0  0  0  0  0  0  0  0  0
   -5.0686    1.4501   14.6287 C   0  0  0  0  0  0  0  0  0  0  0  0
   -5.6349    2.0798   15.7514 C   0  0  0  0  0  0  0  0  0  0  0  0
   -5.8251    3.4788   15.7631 C   0  0  0  0  0  0  0  0  0  0  0  0
   -5.4396    4.2369   14.6490 C   0  0  0  0  0  0  0  0  0  0  0  0
   -4.8752    3.6304   13.5190 C   0  0  0  0  0  0  0  0  0  0  0  0
   -6.5194    4.2531   17.1054 Cl  0  0  0  0  0  0  0  0  0  0  0  0
   -5.6625    5.9398   14.6657 Cl  0  0  0  0  0  0  0  0  0  0  0  0
   -3.9947    1.4365   12.1028 S   0  0  0  0  0  0  0  0  0  0  0  0
   -4.3136    0.0482   12.2194 O   0  0  0  0  0  0  0  0  0  0  0  0
   -2.6285    1.8429   12.0264 O   0  0  0  0  0  0  0  0  0  0  0  0
   -4.7493    2.0119   10.8419 N   0  0  0  0  0  0  0  0  0  0  0  0
   -4.3755    1.5813    9.9962 H   0  0  0  0  0  0  0  0  0  0  0  0
   -4.6151    3.0220   10.7970 H   0  0  0  0  0  0  0  0  0  0  0  0
   -6.0991    1.0673   17.1312 S   0  0  0  0  0  0  0  0  0  0  0  0
   -5.5021    1.6718   18.2878 O   0  0  0  0  0  0  0  0  0  0  0  0
   -7.5193    0.9805   17.0492 O   0  0  0  0  0  0  0  0  0  0  0  0
   -5.4820   -0.3668   16.9659 N   0  0  0  0  0  0  0  0  0  0  0  0
   -5.8902   -0.8204   16.1485 H   0  0  0  0  0  0  0  0  0  0  0  0
   -5.6827   -0.9213   17.7981 H   0  0  0  0  0  0  0  0  0  0  0  0
 10  9  2  0  0  0
 11  9  2  0  0  0
  9 12  1  0  0  0
  9  1  1  0  0  0
  1  6  2  0  0  0
  1  2  1  0  0  0
  6  5  1  0  0  0
  2  3  2  0  0  0
  5  8  1  0  0  0
  5  4  2  0  0  0
  3  4  1  0  0  0
  3 15  1  0  0  0
  4  7  1  0  0  0
 18 15  1  0  0  0
 15 17  2  0  0  0
 15 16  2  0  0  0
 12 13  1  0  0  0
 12 14  1  0  0  0
 18 19  1  0  0  0
 18 20  1  0  0  0
M  END
> <minimizedAffinity>
-8.18359

$$$$
2POU_I7A_A_1000


 20 20  0  0  0  0  0  0  0  0999 V2000
   -5.5237    2.1818   15.8247 C   0  0  0  0  0  0  0  0  0  0  0  0
   -5.0837    1.5128   14.6693 C   0  0  0  0  0  0  0  0  0  0  0  0
   -4.6053    2.2602   13.5783 C   0  0  0  0  0  0  0  0  0  0  0  0
   -4.5681    3.6702   13.6423 C   0  0  0  0  0  0  0  0  0  0  0  0
   -5.0172    4.3205   14.7998 C   0  0  0  0  0  0  0  0  0  0  0  0
   -5.4961    3.5959   15.8994 C   0  0  0  0  0  0  0  0  0  0  0  0
   -3.9814    4.5869   12.3389 Cl  0  0  0  0  0  0  0  0  0  0  0  0
   -4.9805    6.0359   14.8753 Cl  0  0  0  0  0  0  0  0  0  0  0  0
   -6.1129    1.2459   17.1997 S   0  0  0  0  0  0  0  0  0  0  0  0
   -5.1449    0.2201   17.4309 O   0  0  0  0  0  0  0  0  0  0  0  0
   -7.4658    0.8890   16.9175 O   0  0  0  0  0  0  0  0  0  0  0  0
   -6.1105    2.2161   18.4443 N   0  0  0  0  0  0  0  0  0  0  0  0
   -6.4457    1.7147   19.2669 H   0  0  0  0  0  0  0  0  0  0  0  0
   -6.7225    3.0104   18.2575 H   0  0  0  0  0  0  0  0  0  0  0  0
   -4.0542    1.3803   12.1407 S   0  0  0  0  0  0  0  0  0  0  0  0
   -2.6816    1.7520   11.9479 O   0  0  0  0  0  0  0  0  0  0  0  0
   -4.3721    0.0177   12.4118 O   0  0  0  0  0  0  0  0  0  0  0  0
   -4.8634    1.8610   10.8842 N   0  0  0  0  0  0  0  0  0  0  0  0
   -5.8454    1.6088   10.9954 H   0  0  0  0  0  0  0  0  0  0  0  0
   -4.4899    1.4130   10.0475 H   0  0  0  0  0  0  0  0  0  0  0  0
 10  9  2  0  0  0
 11  9  2  0  0  0
  9 12  1  0  0  0
  9  1  1  0  0  0
  1  6  2  0  0  0
  1  2  1  0  0  0
  6  5  1  0  0  0
  2  3  2  0  0  0
  5  8  1  0  0  0
  5  4  2  0  0  0
  3  4  1  0  0  0
  3 15  1  0  0  0
  4  7  1  0  0  0
 18 15  1  0  0  0
 15 17  2  0  0  0
 15 16  2  0  0  0
 12 13  1  0  0  0
 12 14  1  0  0  0
 18 19  1  0  0  0
 18 20  1  0  0  0
M  END
> <minimizedAffinity>
-7.86480

$$$$
2POU_I7A_A_1000


 20 20  0  0  0  0  0  0  0  0999 V2000
   -4.7314    2.2364   14.6838 C   0  0  0  0  0  0  0  0  0  0  0  0
   -4.2913    2.3555   13.3541 C   0  0  0  0  0  0  0  0  0  0  0  0
   -4.3697    3.6028   12.7095 C   0  0  0  0  0  0  0  0  0  0  0  0
   -4.8868    4.7258   13.3915 C   0  0  0  0  0  0  0  0  0  0  0  0
   -5.3273    4.5869   14.7148 C   0  0  0  0  0  0  0  0  0  0  0  0
   -5.2568    3.3542   15.3772 C   0  0  0  0  0  0  0  0  0  0  0  0
   -4.9763    6.2419   12.6322 Cl  0  0  0  0  0  0  0  0  0  0  0  0
   -5.9646    5.9503   15.5424 Cl  0  0  0  0  0  0  0  0  0  0  0  0
   -4.6227    0.6752   15.4989 S   0  0  0  0  0  0  0  0  0  0  0  0
   -3.4867    0.7521   16.3627 O   0  0  0  0  0  0  0  0  0  0  0  0
   -4.6744   -0.3318   14.4887 O   0  0  0  0  0  0  0  0  0  0  0  0
   -5.9151    0.5390   16.3944 N   0  0  0  0  0  0  0  0  0  0  0  0
   -5.8947   -0.3539   16.8870 H   0  0  0  0  0  0  0  0  0  0  0  0
   -6.7448    0.5820   15.8026 H   0  0  0  0  0  0  0  0  0  0  0  0
   -3.7998    3.7144   11.0341 S   0  0  0  0  0  0  0  0  0  0  0  0
   -4.7899    4.4746   10.3261 O   0  0  0  0  0  0  0  0  0  0  0  0
   -2.4753    4.2298   11.1406 O   0  0  0  0  0  0  0  0  0  0  0  0
   -3.7482    2.2807   10.3967 N   0  0  0  0  0  0  0  0  0  0  0  0
   -3.0502    1.7175   10.8826 H   0  0  0  0  0  0  0  0  0  0  0  0
   -3.4981    2.3557    9.4107 H   0  0  0  0  0  0  0  0  0  0  0  0
 10  9  2  0  0  0
 11  9  2  0  0  0
  9 12  1  0  0  0
  9  1  1  0  0  0
  1  6  2  0  0  0
  1  2  1  0  0  0
  6  5  1  0  0  0
  2  3  2  0  0  0
  5  8  1  0  0  0
  5  4  2  0  0  0
  3  4  1  0  0  0
  3 15  1  0  0  0
  4  7  1  0  0  0
 18 15  1  0  0  0
 15 17  2  0  0  0
 15 16  2  0  0  0
 12 13  1  0  0  0
 12 14  1  0  0  0
 18 19  1  0  0  0
 18 20  1  0  0  0
M  END
> <minimizedAffinity>
-7.36114

$$$$
2POU_I7A_A_1000


 20 20  0  0  0  0  0  0  0  0999 V2000
   -4.4575    4.9055   13.8324 C   0  0  0  0  0  0  0  0  0  0  0  0
   -4.6361    3.7509   13.0507 C   0  0  0  0  0  0  0  0  0  0  0  0
   -3.6065    3.3348   12.1879 C   0  0  0  0  0  0  0  0  0  0  0  0
   -2.4041    4.0705   12.1069 C   0  0  0  0  0  0  0  0  0  0  0  0
   -2.2464    5.2231   12.8887 C   0  0  0  0  0  0  0  0  0  0  0  0
   -3.2581    5.6550   13.7564 C   0  0  0  0  0  0  0  0  0  0  0  0
   -1.1460    3.5745   11.0800 Cl  0  0  0  0  0  0  0  0  0  0  0  0
   -0.7876    6.1236   12.7844 Cl  0  0  0  0  0  0  0  0  0  0  0  0
   -5.7431    5.4229   14.9248 S   0  0  0  0  0  0  0  0  0  0  0  0
   -6.8261    5.8500   14.0958 O   0  0  0  0  0  0  0  0  0  0  0  0
   -5.1629    6.3374   15.8547 O   0  0  0  0  0  0  0  0  0  0  0  0
   -6.2066    4.1415   15.7206 N   0  0  0  0  0  0  0  0  0  0  0  0
   -6.9531    4.3947   16.3679 H   0  0  0  0  0  0  0  0  0  0  0  0
   -5.4173    3.7621   16.2436 H   0  0  0  0  0  0  0  0  0  0  0  0
   -3.8669    1.8707   11.2220 S   0  0  0  0  0  0  0  0  0  0  0  0
   -3.5765    2.2323    9.8640 O   0  0  0  0  0  0  0  0  0  0  0  0
   -3.0710    0.8753   11.8599 O   0  0  0  0  0  0  0  0  0  0  0  0
   -5.3779    1.4511   11.2950 N   0  0  0  0  0  0  0  0  0  0  0  0
   -5.6120    1.1883   12.2524 H   0  0  0  0  0  0  0  0  0  0  0  0
   -5.5408    0.6575   10.6752 H   0  0  0  0  0  0  0  0  0  0  0  0
 10  9  2  0  0  0
 11  9  2  0  0  0
  9 12  1  0  0  0
  9  1  1  0  0  0
  1  6  2  0  0  0
  1  2  1  0  0  0
  6  5  1  0  0  0
  2  3  2  0  0  0
  5  8  1  0  0  0
  5  4  2  0  0  0
  3  4  1  0  0  0
  3 15  1  0  0  0
  4  7  1  0  0  0
 18 15  1  0  0  0
 15 17  2  0  0  0
 15 16  2  0  0  0
 12 13  1  0  0  0
 12 14  1  0  0  0
 18 19  1  0  0  0
 18 20  1  0  0  0
M  END
> <minimizedAffinity>
-6.37204

$$$$
2POU_I7A_A_1000


 20 20  0  0  0  0  0  0  0  0999 V2000
   -5.4562    1.9217   15.7158 C   0  0  0  0  0  0  0  0  0  0  0  0
   -5.3981    3.3086   15.4942 C   0  0  0  0  0  0  0  0  0  0  0  0
   -4.8598    3.7937   14.2889 C   0  0  0  0  0  0  0  0  0  0  0  0
   -4.3812    2.8956   13.3102 C   0  0  0  0  0  0  0  0  0  0  0  0
   -4.4409    1.5162   13.5512 C   0  0  0  0  0  0  0  0  0  0  0  0
   -4.9748    1.0107   14.7440 C   0  0  0  0  0  0  0  0  0  0  0  0
   -3.7403    3.4643   11.8442 Cl  0  0  0  0  0  0  0  0  0  0  0  0
   -3.8510    0.4232   12.3650 Cl  0  0  0  0  0  0  0  0  0  0  0  0
   -6.1424    1.3101   17.2221 S   0  0  0  0  0  0  0  0  0  0  0  0
   -7.4750    0.8943   16.9159 O   0  0  0  0  0  0  0  0  0  0  0  0
   -5.9260    2.3083   18.2192 O   0  0  0  0  0  0  0  0  0  0  0  0
   -5.3051    0.0321   17.6170 N   0  0  0  0  0  0  0  0  0  0  0  0
   -5.6687   -0.3571   18.4870 H   0  0  0  0  0  0  0  0  0  0  0  0
   -4.3270    0.2921   17.7435 H   0  0  0  0  0  0  0  0  0  0  0  0
   -4.8084    5.5491   14.0439 S   0  0  0  0  0  0  0  0  0  0  0  0
   -3.4439    5.8686   13.7349 O   0  0  0  0  0  0  0  0  0  0  0  0
   -5.8178    5.8040   13.0706 O   0  0  0  0  0  0  0  0  0  0  0  0
   -5.1822    6.2808   15.3817 N   0  0  0  0  0  0  0  0  0  0  0  0
   -6.1500    6.0702   15.6254 H   0  0  0  0  0  0  0  0  0  0  0  0
   -5.0735    7.2877   15.2604 H   0  0  0  0  0  0  0  0  0  0  0  0
 10  9  2  0  0  0
 11  9  2  0  0  0
  9 12  1  0  0  0
  9  1  1  0  0  0
  1  6  2  0  0  0
  1  2  1  0  0  0
  6  5  1  0  0  0
  2  3  2  0  0  0
  5  8  1  0  0  0
  5  4  2  0  0  0
  3  4  1  0  0  0
  3 15  1  0  0  0
  4  7  1  0  0  0
 18 15  1  0  0  0
 15 17  2  0  0  0
 15 16  2  0  0  0
 12 13  1  0  0  0
 12 14  1  0  0  0
 18 19  1  0  0  0
 18 20  1  0  0  0
M  END
> <minimizedAffinity>
-6.24437

$$$$
2POU_I7A_A_1000


 20 20  0  0  0  0  0  0  0  0999 V2000
   -4.9934    5.5338   11.8271 C   0  0  0  0  0  0  0  0  0  0  0  0
   -4.5269    4.2775   11.4026 C   0  0  0  0  0  0  0  0  0  0  0  0
   -4.3775    3.2424   12.3427 C   0  0  0  0  0  0  0  0  0  0  0  0
   -4.6924    3.4631   13.7013 C   0  0  0  0  0  0  0  0  0  0  0  0
   -5.1496    4.7242   14.1076 C   0  0  0  0  0  0  0  0  0  0  0  0
   -5.3078    5.7693   13.1879 C   0  0  0  0  0  0  0  0  0  0  0  0
   -4.5299    2.2203   14.8469 Cl  0  0  0  0  0  0  0  0  0  0  0  0
   -5.5246    4.9962   15.7614 Cl  0  0  0  0  0  0  0  0  0  0  0  0
   -5.1935    6.8307   10.6474 S   0  0  0  0  0  0  0  0  0  0  0  0
   -3.8790    7.1788   10.2074 O   0  0  0  0  0  0  0  0  0  0  0  0
   -6.0222    7.8243   11.2503 O   0  0  0  0  0  0  0  0  0  0  0  0
   -5.9765    6.2151    9.4234 N   0  0  0  0  0  0  0  0  0  0  0  0
   -6.1156    6.9333    8.7127 H   0  0  0  0  0  0  0  0  0  0  0  0
   -6.8827    5.8690    9.7389 H   0  0  0  0  0  0  0  0  0  0  0  0
   -3.7917    1.6705   11.7681 S   0  0  0  0  0  0  0  0  0  0  0  0
   -2.3687    1.6834   11.9538 O   0  0  0  0  0  0  0  0  0  0  0  0
   -4.5751    0.7154   12.4789 O   0  0  0  0  0  0  0  0  0  0  0  0
   -4.0745    1.5310   10.2302 N   0  0  0  0  0  0  0  0  0  0  0  0
   -5.0817    1.5192   10.0694 H   0  0  0  0  0  0  0  0  0  0  0  0
   -3.6651    0.6622    9.8867 H   0  0  0  0  0  0  0  0  0  0  0  0
 10  9  2  0  0  0
 11  9  2  0  0  0
  9 12  1  0  0  0
  9  1  1  0  0  0
  1  6  2  0  0  0
  1  2  1  0  0  0
  6  5  1  0  0  0
  2  3  2  0  0  0
  5  8  1  0  0  0
  5  4  2  0  0  0
  3  4  1  0  0  0
  3 15  1  0  0  0
  4  7  1  0  0  0
 18 15  1  0  0  0
 15 17  2  0  0  0
 15 16  2  0  0  0
 12 13  1  0  0  0
 12 14  1  0  0  0
 18 19  1  0  0  0
 18 20  1  0  0  0
M  END
> <minimizedAffinity>
-5.99590

$$$$
2POU_I7A_A_1000


 20 20  0  0  0  0  0  0  0  0999 V2000
   -5.0948    4.1227   13.4777 C   0  0  0  0  0  0  0  0  0  0  0  0
   -5.5687    3.8575   14.7743 C   0  0  0  0  0  0  0  0  0  0  0  0
   -5.4354    2.5629   15.3071 C   0  0  0  0  0  0  0  0  0  0  0  0
   -4.8317    1.5381   14.5463 C   0  0  0  0  0  0  0  0  0  0  0  0
   -4.3712    1.8191   13.2527 C   0  0  0  0  0  0  0  0  0  0  0  0
   -4.4918    3.1020   12.7025 C   0  0  0  0  0  0  0  0  0  0  0  0
   -4.6513   -0.0270   15.1797 Cl  0  0  0  0  0  0  0  0  0  0  0  0
   -3.6445    0.5710   12.3231 Cl  0  0  0  0  0  0  0  0  0  0  0  0
   -5.2497    5.7492   12.8114 S   0  0  0  0  0  0  0  0  0  0  0  0
   -4.1600    6.5058   13.3431 O   0  0  0  0  0  0  0  0  0  0  0  0
   -6.5900    6.1771   13.0522 O   0  0  0  0  0  0  0  0  0  0  0  0
   -5.0476    5.6226   11.2514 N   0  0  0  0  0  0  0  0  0  0  0  0
   -5.1292    6.5442   10.8220 H   0  0  0  0  0  0  0  0  0  0  0  0
   -5.7603    5.0033   10.8654 H   0  0  0  0  0  0  0  0  0  0  0  0
   -6.0405    2.2688   16.9478 S   0  0  0  0  0  0  0  0  0  0  0  0
   -5.0129    1.5309   17.6252 O   0  0  0  0  0  0  0  0  0  0  0  0
   -6.4015    3.5595   17.4325 O   0  0  0  0  0  0  0  0  0  0  0  0
   -7.3208    1.3624   16.8844 N   0  0  0  0  0  0  0  0  0  0  0  0
   -8.0692    1.8641   16.4064 H   0  0  0  0  0  0  0  0  0  0  0  0
   -7.6190    1.1286   17.8314 H   0  0  0  0  0  0  0  0  0  0  0  0
 10  9  2  0  0  0
 11  9  2  0  0  0
  9 12  1  0  0  0
  9  1  1  0  0  0
  1  6  2  0  0  0
  1  2  1  0  0  0
  6  5  1  0  0  0
  2  3  2  0  0  0
  5  8  1  0  0  0
  5  4  2  0  0  0
  3  4  1  0  0  0
  3 15  1  0  0  0
  4  7  1  0  0  0
 18 15  1  0  0  0
 15 17  2  0  0  0
 15 16  2  0  0  0
 12 13  1  0  0  0
 12 14  1  0  0  0
 18 19  1  0  0  0
 18 20  1  0  0  0
M  END
> <minimizedAffinity>
-5.98694

$$$$
2POU_I7A_A_1000


 20 20  0  0  0  0  0  0  0  0999 V2000
   -2.9199    6.0005   12.1631 C   0  0  0  0  0  0  0  0  0  0  0  0
   -3.0152    4.7501   11.5279 C   0  0  0  0  0  0  0  0  0  0  0  0
   -3.8294    3.7504   12.0893 C   0  0  0  0  0  0  0  0  0  0  0  0
   -4.5443    3.9998   13.2811 C   0  0  0  0  0  0  0  0  0  0  0  0
   -4.4319    5.2502   13.9043 C   0  0  0  0  0  0  0  0  0  0  0  0
   -3.6281    6.2615   13.3617 C   0  0  0  0  0  0  0  0  0  0  0  0
   -5.5419    2.8081   13.9650 Cl  0  0  0  0  0  0  0  0  0  0  0  0
   -5.2943    5.5517   15.3587 Cl  0  0  0  0  0  0  0  0  0  0  0  0
   -1.9087    7.2608   11.4541 S   0  0  0  0  0  0  0  0  0  0  0  0
   -2.6827    8.4618   11.4871 O   0  0  0  0  0  0  0  0  0  0  0  0
   -1.4302    6.7636   10.2046 O   0  0  0  0  0  0  0  0  0  0  0  0
   -0.6709    7.4450   12.4156 N   0  0  0  0  0  0  0  0  0  0  0  0
   -0.0556    8.1681   12.0430 H   0  0  0  0  0  0  0  0  0  0  0  0
   -0.1593    6.5652   12.4836 H   0  0  0  0  0  0  0  0  0  0  0  0
   -3.9281    2.1882   11.2562 S   0  0  0  0  0  0  0  0  0  0  0  0
   -3.4612    2.4195    9.9190 O   0  0  0  0  0  0  0  0  0  0  0  0
   -3.2087    1.2890   12.0960 O   0  0  0  0  0  0  0  0  0  0  0  0
   -5.4268    1.7291   11.1693 N   0  0  0  0  0  0  0  0  0  0  0  0
   -5.7848    1.5573   12.1089 H   0  0  0  0  0  0  0  0  0  0  0  0
   -5.4886    0.8720   10.6199 H   0  0  0  0  0  0  0  0  0  0  0  0
 10  9  2  0  0  0
 11  9  2  0  0  0
  9 12  1  0  0  0
  9  1  1  0  0  0
  1  6  2  0  0  0
  1  2  1  0  0  0
  6  5  1  0  0  0
  2  3  2  0  0  0
  5  8  1  0  0  0
  5  4  2  0  0  0
  3  4  1  0  0  0
  3 15  1  0  0  0
  4  7  1  0  0  0
 18 15  1  0  0  0
 15 17  2  0  0  0
 15 16  2  0  0  0
 12 13  1  0  0  0
 12 14  1  0  0  0
 18 19  1  0  0  0
 18 20  1  0  0  0
M  END
> <minimizedAffinity>
-5.96508

$$$$
2POU_I7A_A_1000


 20 20  0  0  0  0  0  0  0  0999 V2000
   -4.3325    5.1507   13.6467 C   0  0  0  0  0  0  0  0  0  0  0  0
   -3.6583    4.1791   12.8868 C   0  0  0  0  0  0  0  0  0  0  0  0
   -2.3505    4.4373   12.4392 C   0  0  0  0  0  0  0  0  0  0  0  0
   -1.7201    5.6620   12.7494 C   0  0  0  0  0  0  0  0  0  0  0  0
   -2.4101    6.6219   13.5024 C   0  0  0  0  0  0  0  0  0  0  0  0
   -3.7130    6.3852   13.9604 C   0  0  0  0  0  0  0  0  0  0  0  0
   -0.1367    5.9843   12.2277 Cl  0  0  0  0  0  0  0  0  0  0  0  0
   -1.6475    8.1155   13.8730 Cl  0  0  0  0  0  0  0  0  0  0  0  0
   -5.9691    4.8243   14.2201 S   0  0  0  0  0  0  0  0  0  0  0  0
   -5.9805    5.1558   15.6102 O   0  0  0  0  0  0  0  0  0  0  0  0
   -6.3033    3.4993   13.8076 O   0  0  0  0  0  0  0  0  0  0  0  0
   -6.9239    5.8289   13.4654 N   0  0  0  0  0  0  0  0  0  0  0  0
   -7.8860    5.6754   13.7675 H   0  0  0  0  0  0  0  0  0  0  0  0
   -6.8544    5.6736   12.4597 H   0  0  0  0  0  0  0  0  0  0  0  0
   -1.5309    3.1852   11.4878 S   0  0  0  0  0  0  0  0  0  0  0  0
   -2.2711    1.9744   11.7011 O   0  0  0  0  0  0  0  0  0  0  0  0
   -1.4543    3.7285   10.1725 O   0  0  0  0  0  0  0  0  0  0  0  0
   -0.0790    2.9651   12.0429 N   0  0  0  0  0  0  0  0  0  0  0  0
    0.4704    3.8131   11.9037 H   0  0  0  0  0  0  0  0  0  0  0  0
    0.3607    2.1898   11.5469 H   0  0  0  0  0  0  0  0  0  0  0  0
 10  9  2  0  0  0
 11  9  2  0  0  0
  9 12  1  0  0  0
  9  1  1  0  0  0
  1  6  2  0  0  0
  1  2  1  0  0  0
  6  5  1  0  0  0
  2  3  2  0  0  0
  5  8  1  0  0  0
  5  4  2  0  0  0
  3  4  1  0  0  0
  3 15  1  0  0  0
  4  7  1  0  0  0
 18 15  1  0  0  0
 15 17  2  0  0  0
 15 16  2  0  0  0
 12 13  1  0  0  0
 12 14  1  0  0  0
 18 19  1  0  0  0
 18 20  1  0  0  0
M  END
> <minimizedAffinity>
-5.81967

$$$$
2POU_I7A_A_1000


 20 20  0  0  0  0  0  0  0  0999 V2000
   -3.2049    3.1225   11.7546 C   0  0  0  0  0  0  0  0  0  0  0  0
   -1.9409    3.3721   11.1925 C   0  0  0  0  0  0  0  0  0  0  0  0
   -1.2356    4.5301   11.5652 C   0  0  0  0  0  0  0  0  0  0  0  0
   -1.7923    5.4349   12.4953 C   0  0  0  0  0  0  0  0  0  0  0  0
   -3.0568    5.1733   13.0403 C   0  0  0  0  0  0  0  0  0  0  0  0
   -3.7765    4.0249   12.6848 C   0  0  0  0  0  0  0  0  0  0  0  0
   -0.9483    6.8311   12.9659 Cl  0  0  0  0  0  0  0  0  0  0  0  0
   -3.7387    6.2777   14.1652 Cl  0  0  0  0  0  0  0  0  0  0  0  0
   -4.0867    1.6639   11.2979 S   0  0  0  0  0  0  0  0  0  0  0  0
   -3.5941    0.6180   12.1381 O   0  0  0  0  0  0  0  0  0  0  0  0
   -3.9851    1.5371    9.8798 O   0  0  0  0  0  0  0  0  0  0  0  0
   -5.6016    1.9162   11.6609 N   0  0  0  0  0  0  0  0  0  0  0  0
   -6.1522    1.0942   11.4127 H   0  0  0  0  0  0  0  0  0  0  0  0
   -5.9453    2.7248   11.1427 H   0  0  0  0  0  0  0  0  0  0  0  0
    0.3581    4.8075   10.8386 S   0  0  0  0  0  0  0  0  0  0  0  0
    0.6620    3.6266   10.0820 O   0  0  0  0  0  0  0  0  0  0  0  0
    0.2288    6.0530   10.1580 O   0  0  0  0  0  0  0  0  0  0  0  0
    1.4380    4.9449   11.9697 N   0  0  0  0  0  0  0  0  0  0  0  0
    1.2452    5.7788   12.5244 H   0  0  0  0  0  0  0  0  0  0  0  0
    2.3636    5.0233   11.5483 H   0  0  0  0  0  0  0  0  0  0  0  0
 10  9  2  0  0  0
 11  9  2  0  0  0
  9 12  1  0  0  0
  9  1  1  0  0  0
  1  6  2  0  0  0
  1  2  1  0  0  0
  6  5  1  0  0  0
  2  3  2  0  0  0
  5  8  1  0  0  0
  5  4  2  0  0  0
  3  4  1  0  0  0
  3 15  1  0  0  0
  4  7  1  0  0  0
 18 15  1  0  0  0
 15 17  2  0  0  0
 15 16  2  0  0  0
 12 13  1  0  0  0
 12 14  1  0  0  0
 18 19  1  0  0  0
 18 20  1  0  0  0
M  END
> <minimizedAffinity>
-5.64850

$$$$
