1RP7_TZD_A_889


 32 33  0  0  0  0  0  0  0  0999 V2000
   22.7495  -63.6242   -0.7547 N   0  0  0  0  0  0  0  0  0  0  0  0
   22.1955  -63.9494   -1.9481 C   0  0  0  0  0  0  0  0  0  0  0  0
   22.6790  -63.7531   -3.0745 O   0  0  0  0  0  0  0  0  0  0  0  0
   20.6359  -64.7145   -1.6922 S   0  0  0  0  0  0  0  0  0  0  0  0
   20.7738  -64.5560    0.0293 C   0  0  0  0  0  0  0  0  0  0  0  0
   21.9623  -63.9614    0.3851 C   0  0  0  0  0  0  0  0  0  0  0  0
   22.4543  -63.6832    1.7799 C   0  0  0  0  0  0  0  0  0  0  0  0
   24.1312  -63.0130   -0.6297 C   0  0  0  0  0  0  0  0  0  0  0  0
   24.5988  -59.6689    1.0567 N   0  0  0  0  0  0  0  0  0  0  0  0
   24.2523  -58.7705    0.0712 C   0  0  0  0  0  0  0  0  0  0  0  0
   24.3388  -57.3245    0.4091 C   0  0  0  0  0  0  0  0  0  0  0  0
   23.8523  -59.1497   -1.1409 N   0  0  0  0  0  0  0  0  0  0  0  0
   23.7753  -60.5146   -1.4357 C   0  0  0  0  0  0  0  0  0  0  0  0
   23.3987  -60.8255   -2.6608 N   0  0  0  0  0  0  0  0  0  0  0  0
   24.1354  -61.5168   -0.4060 C   0  0  0  0  0  0  0  0  0  0  0  0
   24.5366  -61.0306    0.8133 C   0  0  0  0  0  0  0  0  0  0  0  0
   23.1716  -60.1135   -3.3016 H   0  0  0  0  0  0  0  0  0  0  0  0
   23.3447  -61.7697   -2.9345 H   0  0  0  0  0  0  0  0  0  0  0  0
   19.6519  -64.9639    0.9283 C   0  0  0  0  0  0  0  0  0  0  0  0
   18.4025  -64.1616    0.6635 C   0  0  0  0  0  0  0  0  0  0  0  0
   17.4086  -64.5597    1.6373 O   0  0  0  0  0  0  0  0  0  0  0  0
   16.1149  -63.6612    1.9167 P   0  0  0  0  0  0  0  0  0  0  0  0
   15.5640  -64.0586    3.2275 O   0  0  0  0  0  0  0  0  0  0  0  0
   16.4649  -62.2372    1.6910 O   0  0  0  0  0  0  0  0  0  0  0  0
   16.8120  -62.1281    0.7918 H   0  0  0  0  0  0  0  0  0  0  0  0
   15.1081  -64.1058    0.7654 O   0  0  0  0  0  0  0  0  0  0  0  0
   14.5573  -65.4997    0.2032 P   0  0  0  0  0  0  0  0  0  0  0  0
   14.2806  -66.3786    1.4620 O   0  0  0  0  0  0  0  0  0  0  0  0
   13.2713  -65.2165   -0.4902 O   0  0  0  0  0  0  0  0  0  0  0  0
   15.6444  -66.1045   -0.6024 O   0  0  0  0  0  0  0  0  0  0  0  0
   13.5687  -65.9785    1.9855 H   0  0  0  0  0  0  0  0  0  0  0  0
   16.4249  -66.2399   -0.0425 H   0  0  0  0  0  0  0  0  0  0  0  0
  9 10  2  0  0  0
  9 16  1  0  0  0
 10 11  1  0  0  0
 10 12  1  0  0  0
 12 13  2  0  0  0
 13 14  1  0  0  0
 13 15  1  0  0  0
 15 16  2  0  0  0
 15  8  1  0  0  0
  8  1  1  0  0  0
  1  2  1  0  0  0
  1  6  1  0  0  0
  2  3  2  0  0  0
  2  4  1  0  0  0
  4  5  1  0  0  0
  5  6  2  0  0  0
  5 19  1  0  0  0
  6  7  1  0  0  0
 19 20  1  0  0  0
 20 21  1  0  0  0
 21 22  1  0  0  0
 22 26  1  0  0  0
 22 23  2  0  0  0
 22 24  1  0  0  0
 26 27  1  0  0  0
 27 28  1  0  0  0
 27 29  2  0  0  0
 27 30  1  0  0  0
 14 17  1  0  0  0
 14 18  1  0  0  0
 24 25  1  0  0  0
 28 31  1  0  0  0
 30 32  1  0  0  0
M  END
> <minimizedAffinity>
-10.75806

$$$$
1RP7_TZD_A_889


 32 33  0  0  0  0  0  0  0  0999 V2000
   22.7081  -63.4877   -1.1159 N   0  0  0  0  0  0  0  0  0  0  0  0
   22.3432  -63.5320   -2.4204 C   0  0  0  0  0  0  0  0  0  0  0  0
   23.0110  -63.1539   -3.3962 O   0  0  0  0  0  0  0  0  0  0  0  0
   20.7337  -64.2186   -2.5659 S   0  0  0  0  0  0  0  0  0  0  0  0
   20.5957  -64.4111   -0.8479 C   0  0  0  0  0  0  0  0  0  0  0  0
   21.7331  -63.9845   -0.2020 C   0  0  0  0  0  0  0  0  0  0  0  0
   22.0022  -64.0212    1.2783 C   0  0  0  0  0  0  0  0  0  0  0  0
   24.0741  -63.0135   -0.6606 C   0  0  0  0  0  0  0  0  0  0  0  0
   23.8623  -59.2730   -1.1180 N   0  0  0  0  0  0  0  0  0  0  0  0
   24.1953  -58.7863    0.1273 C   0  0  0  0  0  0  0  0  0  0  0  0
   24.1971  -57.3091    0.3012 C   0  0  0  0  0  0  0  0  0  0  0  0
   24.5079  -59.5790    1.1504 N   0  0  0  0  0  0  0  0  0  0  0  0
   24.5029  -60.9649    0.9635 C   0  0  0  0  0  0  0  0  0  0  0  0
   24.7946  -61.6964    2.0213 N   0  0  0  0  0  0  0  0  0  0  0  0
   24.1539  -61.5332   -0.3593 C   0  0  0  0  0  0  0  0  0  0  0  0
   23.8456  -60.6375   -1.3527 C   0  0  0  0  0  0  0  0  0  0  0  0
   25.0191  -61.2601    2.8748 H   0  0  0  0  0  0  0  0  0  0  0  0
   24.7880  -62.6788    1.9575 H   0  0  0  0  0  0  0  0  0  0  0  0
   19.3272  -64.9058   -0.2320 C   0  0  0  0  0  0  0  0  0  0  0  0
   18.5370  -63.7861    0.3979 C   0  0  0  0  0  0  0  0  0  0  0  0
   17.6114  -64.3763    1.3411 O   0  0  0  0  0  0  0  0  0  0  0  0
   16.2726  -63.6161    1.7755 P   0  0  0  0  0  0  0  0  0  0  0  0
   15.8683  -64.1342    3.0976 O   0  0  0  0  0  0  0  0  0  0  0  0
   16.4787  -62.1559    1.6131 O   0  0  0  0  0  0  0  0  0  0  0  0
   16.7396  -61.9659    0.6984 H   0  0  0  0  0  0  0  0  0  0  0  0
   15.2162  -64.0858    0.6800 O   0  0  0  0  0  0  0  0  0  0  0  0
   14.6194  -65.4896    0.1947 P   0  0  0  0  0  0  0  0  0  0  0  0
   14.3833  -66.3164    1.4964 O   0  0  0  0  0  0  0  0  0  0  0  0
   13.3093  -65.2096   -0.4535 O   0  0  0  0  0  0  0  0  0  0  0  0
   15.6608  -66.1428   -0.6331 O   0  0  0  0  0  0  0  0  0  0  0  0
   13.7011  -65.8848    2.0343 H   0  0  0  0  0  0  0  0  0  0  0  0
   16.4625  -66.2711   -0.1022 H   0  0  0  0  0  0  0  0  0  0  0  0
  9 10  2  0  0  0
  9 16  1  0  0  0
 10 11  1  0  0  0
 10 12  1  0  0  0
 12 13  2  0  0  0
 13 14  1  0  0  0
 13 15  1  0  0  0
 15 16  2  0  0  0
 15  8  1  0  0  0
  8  1  1  0  0  0
  1  2  1  0  0  0
  1  6  1  0  0  0
  2  3  2  0  0  0
  2  4  1  0  0  0
  4  5  1  0  0  0
  5  6  2  0  0  0
  5 19  1  0  0  0
  6  7  1  0  0  0
 19 20  1  0  0  0
 20 21  1  0  0  0
 21 22  1  0  0  0
 22 26  1  0  0  0
 22 23  2  0  0  0
 22 24  1  0  0  0
 26 27  1  0  0  0
 27 28  1  0  0  0
 27 29  2  0  0  0
 27 30  1  0  0  0
 14 17  1  0  0  0
 14 18  1  0  0  0
 24 25  1  0  0  0
 28 31  1  0  0  0
 30 32  1  0  0  0
M  END
> <minimizedAffinity>
-10.53539

$$$$
1RP7_TZD_A_889


 32 33  0  0  0  0  0  0  0  0999 V2000
   22.8800  -63.5395   -0.1569 N   0  0  0  0  0  0  0  0  0  0  0  0
   22.5900  -63.6623    1.1613 C   0  0  0  0  0  0  0  0  0  0  0  0
   23.3156  -63.3482    2.1183 O   0  0  0  0  0  0  0  0  0  0  0  0
   20.9889  -64.3561    1.3570 S   0  0  0  0  0  0  0  0  0  0  0  0
   20.7654  -64.4746   -0.3587 C   0  0  0  0  0  0  0  0  0  0  0  0
   21.8575  -63.9914   -1.0417 C   0  0  0  0  0  0  0  0  0  0  0  0
   22.0241  -63.8985   -2.5346 C   0  0  0  0  0  0  0  0  0  0  0  0
   24.1616  -62.9056   -0.6605 C   0  0  0  0  0  0  0  0  0  0  0  0
   23.7364  -59.1799   -1.0891 N   0  0  0  0  0  0  0  0  0  0  0  0
   24.3445  -58.6644    0.0347 C   0  0  0  0  0  0  0  0  0  0  0  0
   24.3447  -57.1850    0.1890 C   0  0  0  0  0  0  0  0  0  0  0  0
   24.9170  -59.4318    0.9601 N   0  0  0  0  0  0  0  0  0  0  0  0
   24.9078  -60.8203    0.7931 C   0  0  0  0  0  0  0  0  0  0  0  0
   25.4666  -61.5266    1.7565 N   0  0  0  0  0  0  0  0  0  0  0  0
   24.2681  -61.4190   -0.4013 C   0  0  0  0  0  0  0  0  0  0  0  0
   23.7039  -60.5481   -1.2998 C   0  0  0  0  0  0  0  0  0  0  0  0
   25.8766  -61.0706    2.5268 H   0  0  0  0  0  0  0  0  0  0  0  0
   25.4736  -62.5097    1.7055 H   0  0  0  0  0  0  0  0  0  0  0  0
   19.5422  -65.1161   -0.9293 C   0  0  0  0  0  0  0  0  0  0  0  0
   18.4505  -65.2554    0.1019 C   0  0  0  0  0  0  0  0  0  0  0  0
   17.7492  -63.9914    0.1746 O   0  0  0  0  0  0  0  0  0  0  0  0
   16.6410  -63.7212    1.2962 P   0  0  0  0  0  0  0  0  0  0  0  0
   16.8968  -64.6488    2.4160 O   0  0  0  0  0  0  0  0  0  0  0  0
   16.5873  -62.2647    1.5732 O   0  0  0  0  0  0  0  0  0  0  0  0
   16.4130  -61.7849    0.7483 H   0  0  0  0  0  0  0  0  0  0  0  0
   15.2832  -64.1317    0.5718 O   0  0  0  0  0  0  0  0  0  0  0  0
   14.5605  -65.5087    0.1922 P   0  0  0  0  0  0  0  0  0  0  0  0
   14.4332  -66.2976    1.5319 O   0  0  0  0  0  0  0  0  0  0  0  0
   13.2009  -65.1679   -0.3081 O   0  0  0  0  0  0  0  0  0  0  0  0
   15.4628  -66.2334   -0.7336 O   0  0  0  0  0  0  0  0  0  0  0  0
   13.8418  -65.8193    2.1339 H   0  0  0  0  0  0  0  0  0  0  0  0
   16.3126  -66.3965   -0.2952 H   0  0  0  0  0  0  0  0  0  0  0  0
  9 10  2  0  0  0
  9 16  1  0  0  0
 10 11  1  0  0  0
 10 12  1  0  0  0
 12 13  2  0  0  0
 13 14  1  0  0  0
 13 15  1  0  0  0
 15 16  2  0  0  0
 15  8  1  0  0  0
  8  1  1  0  0  0
  1  2  1  0  0  0
  1  6  1  0  0  0
  2  3  2  0  0  0
  2  4  1  0  0  0
  4  5  1  0  0  0
  5  6  2  0  0  0
  5 19  1  0  0  0
  6  7  1  0  0  0
 19 20  1  0  0  0
 20 21  1  0  0  0
 21 22  1  0  0  0
 22 26  1  0  0  0
 22 23  2  0  0  0
 22 24  1  0  0  0
 26 27  1  0  0  0
 27 28  1  0  0  0
 27 29  2  0  0  0
 27 30  1  0  0  0
 14 17  1  0  0  0
 14 18  1  0  0  0
 24 25  1  0  0  0
 28 31  1  0  0  0
 30 32  1  0  0  0
M  END
> <minimizedAffinity>
-9.67234

$$$$
1RP7_TZD_A_889


 32 33  0  0  0  0  0  0  0  0999 V2000
   22.3720  -64.4147   -1.4814 N   0  0  0  0  0  0  0  0  0  0  0  0
   23.1123  -63.6041   -0.6866 C   0  0  0  0  0  0  0  0  0  0  0  0
   24.2180  -63.1055   -0.9511 O   0  0  0  0  0  0  0  0  0  0  0  0
   22.2773  -63.3371    0.8348 S   0  0  0  0  0  0  0  0  0  0  0  0
   20.9528  -64.3481    0.3539 C   0  0  0  0  0  0  0  0  0  0  0  0
   21.1383  -64.8489   -0.9140 C   0  0  0  0  0  0  0  0  0  0  0  0
   20.1970  -65.7349   -1.6848 C   0  0  0  0  0  0  0  0  0  0  0  0
   22.7837  -64.7790   -2.8941 C   0  0  0  0  0  0  0  0  0  0  0  0
   24.1458  -68.2933   -2.6939 N   0  0  0  0  0  0  0  0  0  0  0  0
   25.4239  -68.1622   -3.1917 C   0  0  0  0  0  0  0  0  0  0  0  0
   26.2542  -69.3941   -3.2648 C   0  0  0  0  0  0  0  0  0  0  0  0
   25.9230  -66.9961   -3.5967 N   0  0  0  0  0  0  0  0  0  0  0  0
   25.1256  -65.8501   -3.5161 C   0  0  0  0  0  0  0  0  0  0  0  0
   25.6670  -64.7315   -3.9576 N   0  0  0  0  0  0  0  0  0  0  0  0
   23.7459  -65.9428   -2.9847 C   0  0  0  0  0  0  0  0  0  0  0  0
   23.3192  -67.1870   -2.5924 C   0  0  0  0  0  0  0  0  0  0  0  0
   26.5902  -64.7329   -4.2995 H   0  0  0  0  0  0  0  0  0  0  0  0
   25.1480  -63.8950   -3.9453 H   0  0  0  0  0  0  0  0  0  0  0  0
   19.8360  -64.6490    1.3001 C   0  0  0  0  0  0  0  0  0  0  0  0
   18.5062  -64.1825    0.7628 C   0  0  0  0  0  0  0  0  0  0  0  0
   17.4982  -64.4879    1.7556 O   0  0  0  0  0  0  0  0  0  0  0  0
   16.1470  -63.6373    1.8543 P   0  0  0  0  0  0  0  0  0  0  0  0
   15.4557  -64.0313    3.0979 O   0  0  0  0  0  0  0  0  0  0  0  0
   16.4678  -62.2049    1.6384 O   0  0  0  0  0  0  0  0  0  0  0  0
   16.9176  -62.0993    0.7856 H   0  0  0  0  0  0  0  0  0  0  0  0
   15.3059  -64.1445    0.6006 O   0  0  0  0  0  0  0  0  0  0  0  0
   14.5959  -65.5159    0.1788 P   0  0  0  0  0  0  0  0  0  0  0  0
   14.3923  -66.3075    1.5074 O   0  0  0  0  0  0  0  0  0  0  0  0
   13.2672  -65.1652   -0.3924 O   0  0  0  0  0  0  0  0  0  0  0  0
   15.5421  -66.2439   -0.6995 O   0  0  0  0  0  0  0  0  0  0  0  0
   13.7726  -65.8270    2.0784 H   0  0  0  0  0  0  0  0  0  0  0  0
   16.3662  -66.4135   -0.2168 H   0  0  0  0  0  0  0  0  0  0  0  0
  9 10  2  0  0  0
  9 16  1  0  0  0
 10 11  1  0  0  0
 10 12  1  0  0  0
 12 13  2  0  0  0
 13 14  1  0  0  0
 13 15  1  0  0  0
 15 16  2  0  0  0
 15  8  1  0  0  0
  8  1  1  0  0  0
  1  2  1  0  0  0
  1  6  1  0  0  0
  2  3  2  0  0  0
  2  4  1  0  0  0
  4  5  1  0  0  0
  5  6  2  0  0  0
  5 19  1  0  0  0
  6  7  1  0  0  0
 19 20  1  0  0  0
 20 21  1  0  0  0
 21 22  1  0  0  0
 22 26  1  0  0  0
 22 23  2  0  0  0
 22 24  1  0  0  0
 26 27  1  0  0  0
 27 28  1  0  0  0
 27 29  2  0  0  0
 27 30  1  0  0  0
 14 17  1  0  0  0
 14 18  1  0  0  0
 24 25  1  0  0  0
 28 31  1  0  0  0
 30 32  1  0  0  0
M  END
> <minimizedAffinity>
-9.00902

$$$$
1RP7_TZD_A_889


 32 33  0  0  0  0  0  0  0  0999 V2000
   22.6526  -63.7558   -0.0883 N   0  0  0  0  0  0  0  0  0  0  0  0
   22.3435  -63.7858    1.2309 C   0  0  0  0  0  0  0  0  0  0  0  0
   23.0605  -63.4169    2.1748 O   0  0  0  0  0  0  0  0  0  0  0  0
   20.7309  -64.4450    1.4502 S   0  0  0  0  0  0  0  0  0  0  0  0
   20.5286  -64.6762   -0.2566 C   0  0  0  0  0  0  0  0  0  0  0  0
   21.6361  -64.2538   -0.9551 C   0  0  0  0  0  0  0  0  0  0  0  0
   21.8237  -64.2639   -2.4483 C   0  0  0  0  0  0  0  0  0  0  0  0
   23.9492  -63.1733   -0.6153 C   0  0  0  0  0  0  0  0  0  0  0  0
   23.6450  -59.4440   -1.1107 N   0  0  0  0  0  0  0  0  0  0  0  0
   24.2766  -58.9285    0.0001 C   0  0  0  0  0  0  0  0  0  0  0  0
   24.3267  -57.4473    0.1269 C   0  0  0  0  0  0  0  0  0  0  0  0
   24.8289  -59.6973    0.9364 N   0  0  0  0  0  0  0  0  0  0  0  0
   24.7727  -61.0875    0.7953 C   0  0  0  0  0  0  0  0  0  0  0  0
   25.3136  -61.7942    1.7687 N   0  0  0  0  0  0  0  0  0  0  0  0
   24.1063  -61.6866   -0.3844 C   0  0  0  0  0  0  0  0  0  0  0  0
   23.5659  -60.8140   -1.2958 C   0  0  0  0  0  0  0  0  0  0  0  0
   25.7431  -61.3381    2.5281 H   0  0  0  0  0  0  0  0  0  0  0  0
   25.2878  -62.7778    1.7359 H   0  0  0  0  0  0  0  0  0  0  0  0
   19.3048  -65.3396   -0.8000 C   0  0  0  0  0  0  0  0  0  0  0  0
   18.4288  -65.8852    0.2999 C   0  0  0  0  0  0  0  0  0  0  0  0
   17.1012  -66.0712   -0.2455 O   0  0  0  0  0  0  0  0  0  0  0  0
   15.8180  -65.4236    0.4566 P   0  0  0  0  0  0  0  0  0  0  0  0
   14.6194  -65.9188   -0.2491 O   0  0  0  0  0  0  0  0  0  0  0  0
   15.9204  -65.6304    1.9222 O   0  0  0  0  0  0  0  0  0  0  0  0
   16.7550  -65.2555    2.2441 H   0  0  0  0  0  0  0  0  0  0  0  0
   15.9931  -63.8669    0.1689 O   0  0  0  0  0  0  0  0  0  0  0  0
   16.5025  -62.5997    1.0039 P   0  0  0  0  0  0  0  0  0  0  0  0
   15.9134  -61.3533    0.2740 O   0  0  0  0  0  0  0  0  0  0  0  0
   15.9054  -62.7004    2.3633 O   0  0  0  0  0  0  0  0  0  0  0  0
   17.9817  -62.5833    0.9114 O   0  0  0  0  0  0  0  0  0  0  0  0
   14.9456  -61.3689    0.3375 H   0  0  0  0  0  0  0  0  0  0  0  0
   18.2467  -62.5153   -0.0192 H   0  0  0  0  0  0  0  0  0  0  0  0
  9 10  2  0  0  0
  9 16  1  0  0  0
 10 11  1  0  0  0
 10 12  1  0  0  0
 12 13  2  0  0  0
 13 14  1  0  0  0
 13 15  1  0  0  0
 15 16  2  0  0  0
 15  8  1  0  0  0
  8  1  1  0  0  0
  1  2  1  0  0  0
  1  6  1  0  0  0
  2  3  2  0  0  0
  2  4  1  0  0  0
  4  5  1  0  0  0
  5  6  2  0  0  0
  5 19  1  0  0  0
  6  7  1  0  0  0
 19 20  1  0  0  0
 20 21  1  0  0  0
 21 22  1  0  0  0
 22 26  1  0  0  0
 22 23  2  0  0  0
 22 24  1  0  0  0
 26 27  1  0  0  0
 27 28  1  0  0  0
 27 29  2  0  0  0
 27 30  1  0  0  0
 14 17  1  0  0  0
 14 18  1  0  0  0
 24 25  1  0  0  0
 28 31  1  0  0  0
 30 32  1  0  0  0
M  END
> <minimizedAffinity>
-8.99534

$$$$
1RP7_TZD_A_889


 32 33  0  0  0  0  0  0  0  0999 V2000
   23.5268  -63.3784   -1.2490 N   0  0  0  0  0  0  0  0  0  0  0  0
   23.8149  -63.8529   -2.4854 C   0  0  0  0  0  0  0  0  0  0  0  0
   24.9063  -63.7913   -3.0737 O   0  0  0  0  0  0  0  0  0  0  0  0
   22.3867  -64.5964   -3.1859 S   0  0  0  0  0  0  0  0  0  0  0  0
   21.4340  -64.2268   -1.7847 C   0  0  0  0  0  0  0  0  0  0  0  0
   22.1805  -63.5813   -0.8261 C   0  0  0  0  0  0  0  0  0  0  0  0
   21.7155  -63.1294    0.5321 C   0  0  0  0  0  0  0  0  0  0  0  0
   24.5686  -62.7427   -0.3497 C   0  0  0  0  0  0  0  0  0  0  0  0
   24.6799  -59.3080    1.2110 N   0  0  0  0  0  0  0  0  0  0  0  0
   24.2628  -58.4856    0.1872 C   0  0  0  0  0  0  0  0  0  0  0  0
   24.2020  -57.0265    0.4697 C   0  0  0  0  0  0  0  0  0  0  0  0
   23.9212  -58.9475   -1.0140 N   0  0  0  0  0  0  0  0  0  0  0  0
   23.9829  -60.3234   -1.2565 C   0  0  0  0  0  0  0  0  0  0  0  0
   23.6581  -60.7156   -2.4730 N   0  0  0  0  0  0  0  0  0  0  0  0
   24.4228  -61.2461   -0.1843 C   0  0  0  0  0  0  0  0  0  0  0  0
   24.7551  -60.6774    1.0200 C   0  0  0  0  0  0  0  0  0  0  0  0
   23.3727  -60.0539   -3.1438 H   0  0  0  0  0  0  0  0  0  0  0  0
   23.7011  -61.6701   -2.7105 H   0  0  0  0  0  0  0  0  0  0  0  0
   19.9717  -64.5326   -1.7502 C   0  0  0  0  0  0  0  0  0  0  0  0
   19.6860  -65.8192   -1.0168 C   0  0  0  0  0  0  0  0  0  0  0  0
   18.3358  -65.7422   -0.5014 O   0  0  0  0  0  0  0  0  0  0  0  0
   18.0412  -65.2010    0.9748 P   0  0  0  0  0  0  0  0  0  0  0  0
   16.8729  -65.9353    1.4998 O   0  0  0  0  0  0  0  0  0  0  0  0
   19.3052  -65.2205    1.7515 O   0  0  0  0  0  0  0  0  0  0  0  0
   19.9783  -64.6992    1.2867 H   0  0  0  0  0  0  0  0  0  0  0  0
   17.6406  -63.6789    0.7307 O   0  0  0  0  0  0  0  0  0  0  0  0
   16.3209  -62.7966    0.9362 P   0  0  0  0  0  0  0  0  0  0  0  0
   15.1330  -63.7161    0.5157 O   0  0  0  0  0  0  0  0  0  0  0  0
   16.2167  -62.4938    2.3896 O   0  0  0  0  0  0  0  0  0  0  0  0
   16.4178  -61.6453    0.0079 O   0  0  0  0  0  0  0  0  0  0  0  0
   15.0740  -64.4676    1.1261 H   0  0  0  0  0  0  0  0  0  0  0  0
   16.4801  -61.9696   -0.9041 H   0  0  0  0  0  0  0  0  0  0  0  0
  9 10  2  0  0  0
  9 16  1  0  0  0
 10 11  1  0  0  0
 10 12  1  0  0  0
 12 13  2  0  0  0
 13 14  1  0  0  0
 13 15  1  0  0  0
 15 16  2  0  0  0
 15  8  1  0  0  0
  8  1  1  0  0  0
  1  2  1  0  0  0
  1  6  1  0  0  0
  2  3  2  0  0  0
  2  4  1  0  0  0
  4  5  1  0  0  0
  5  6  2  0  0  0
  5 19  1  0  0  0
  6  7  1  0  0  0
 19 20  1  0  0  0
 20 21  1  0  0  0
 21 22  1  0  0  0
 22 26  1  0  0  0
 22 23  2  0  0  0
 22 24  1  0  0  0
 26 27  1  0  0  0
 27 28  1  0  0  0
 27 29  2  0  0  0
 27 30  1  0  0  0
 14 17  1  0  0  0
 14 18  1  0  0  0
 24 25  1  0  0  0
 28 31  1  0  0  0
 30 32  1  0  0  0
M  END
> <minimizedAffinity>
-8.52635

$$$$
1RP7_TZD_A_889


 32 33  0  0  0  0  0  0  0  0999 V2000
   23.5022  -63.3983   -1.2445 N   0  0  0  0  0  0  0  0  0  0  0  0
   23.0585  -63.8600   -2.4390 C   0  0  0  0  0  0  0  0  0  0  0  0
   23.5945  -63.7007   -3.5473 O   0  0  0  0  0  0  0  0  0  0  0  0
   21.5609  -64.7489   -2.2152 S   0  0  0  0  0  0  0  0  0  0  0  0
   21.5716  -64.4540   -0.5062 C   0  0  0  0  0  0  0  0  0  0  0  0
   22.6761  -63.7253   -0.1295 C   0  0  0  0  0  0  0  0  0  0  0  0
   23.0494  -63.3016    1.2656 C   0  0  0  0  0  0  0  0  0  0  0  0
   24.8120  -62.6515   -1.0876 C   0  0  0  0  0  0  0  0  0  0  0  0
   23.8198  -59.0099   -1.0759 N   0  0  0  0  0  0  0  0  0  0  0  0
   24.2707  -58.5669    0.1484 C   0  0  0  0  0  0  0  0  0  0  0  0
   24.0243  -57.1397    0.4873 C   0  0  0  0  0  0  0  0  0  0  0  0
   24.9040  -59.3580    1.0121 N   0  0  0  0  0  0  0  0  0  0  0  0
   25.1277  -60.6958    0.6713 C   0  0  0  0  0  0  0  0  0  0  0  0
   25.7355  -61.4344    1.5793 N   0  0  0  0  0  0  0  0  0  0  0  0
   24.6631  -61.2155   -0.6358 C   0  0  0  0  0  0  0  0  0  0  0  0
   24.0197  -60.3254   -1.4592 C   0  0  0  0  0  0  0  0  0  0  0  0
   26.0214  -61.0313    2.4308 H   0  0  0  0  0  0  0  0  0  0  0  0
   25.9033  -62.3888    1.4056 H   0  0  0  0  0  0  0  0  0  0  0  0
   20.4350  -64.9003    0.3553 C   0  0  0  0  0  0  0  0  0  0  0  0
   19.2955  -63.9125    0.3342 C   0  0  0  0  0  0  0  0  0  0  0  0
   18.1699  -64.5521   -0.3129 O   0  0  0  0  0  0  0  0  0  0  0  0
   17.3612  -65.7313    0.4044 P   0  0  0  0  0  0  0  0  0  0  0  0
   16.3097  -66.1881   -0.5259 O   0  0  0  0  0  0  0  0  0  0  0  0
   18.3306  -66.7240    0.9298 O   0  0  0  0  0  0  0  0  0  0  0  0
   18.9567  -66.2813    1.5239 H   0  0  0  0  0  0  0  0  0  0  0  0
   16.6839  -65.0031    1.6485 O   0  0  0  0  0  0  0  0  0  0  0  0
   15.6780  -63.7736    1.8453 P   0  0  0  0  0  0  0  0  0  0  0  0
   14.9843  -64.0166    3.2212 O   0  0  0  0  0  0  0  0  0  0  0  0
   16.5040  -62.5381    1.9233 O   0  0  0  0  0  0  0  0  0  0  0  0
   14.6754  -63.8526    0.7566 O   0  0  0  0  0  0  0  0  0  0  0  0
   15.6445  -63.9639    3.9300 H   0  0  0  0  0  0  0  0  0  0  0  0
   14.2045  -64.6988    0.8115 H   0  0  0  0  0  0  0  0  0  0  0  0
  9 10  2  0  0  0
  9 16  1  0  0  0
 10 11  1  0  0  0
 10 12  1  0  0  0
 12 13  2  0  0  0
 13 14  1  0  0  0
 13 15  1  0  0  0
 15 16  2  0  0  0
 15  8  1  0  0  0
  8  1  1  0  0  0
  1  2  1  0  0  0
  1  6  1  0  0  0
  2  3  2  0  0  0
  2  4  1  0  0  0
  4  5  1  0  0  0
  5  6  2  0  0  0
  5 19  1  0  0  0
  6  7  1  0  0  0
 19 20  1  0  0  0
 20 21  1  0  0  0
 21 22  1  0  0  0
 22 26  1  0  0  0
 22 23  2  0  0  0
 22 24  1  0  0  0
 26 27  1  0  0  0
 27 28  1  0  0  0
 27 29  2  0  0  0
 27 30  1  0  0  0
 14 17  1  0  0  0
 14 18  1  0  0  0
 24 25  1  0  0  0
 28 31  1  0  0  0
 30 32  1  0  0  0
M  END
> <minimizedAffinity>
-8.36348

$$$$
1RP7_TZD_A_889


 32 33  0  0  0  0  0  0  0  0999 V2000
   23.6247  -63.9203   -2.2239 N   0  0  0  0  0  0  0  0  0  0  0  0
   24.5437  -63.1051   -1.6513 C   0  0  0  0  0  0  0  0  0  0  0  0
   25.6632  -62.8102   -2.0995 O   0  0  0  0  0  0  0  0  0  0  0  0
   23.9281  -62.4926   -0.1252 S   0  0  0  0  0  0  0  0  0  0  0  0
   22.4453  -63.3748   -0.3009 C   0  0  0  0  0  0  0  0  0  0  0  0
   22.4217  -64.0876   -1.4774 C   0  0  0  0  0  0  0  0  0  0  0  0
   21.2984  -64.9453   -1.9947 C   0  0  0  0  0  0  0  0  0  0  0  0
   23.8239  -64.5532   -3.5869 C   0  0  0  0  0  0  0  0  0  0  0  0
   24.5515  -68.2402   -3.2382 N   0  0  0  0  0  0  0  0  0  0  0  0
   25.8847  -68.3291   -3.5746 C   0  0  0  0  0  0  0  0  0  0  0  0
   26.5026  -69.6819   -3.5512 C   0  0  0  0  0  0  0  0  0  0  0  0
   26.6153  -67.2676   -3.9095 N   0  0  0  0  0  0  0  0  0  0  0  0
   26.0146  -66.0047   -3.9218 C   0  0  0  0  0  0  0  0  0  0  0  0
   26.7833  -64.9976   -4.2879 N   0  0  0  0  0  0  0  0  0  0  0  0
   24.5843  -65.8608   -3.5644 C   0  0  0  0  0  0  0  0  0  0  0  0
   23.9131  -67.0115   -3.2336 C   0  0  0  0  0  0  0  0  0  0  0  0
   27.7283  -65.1563   -4.5138 H   0  0  0  0  0  0  0  0  0  0  0  0
   26.4121  -64.0869   -4.3353 H   0  0  0  0  0  0  0  0  0  0  0  0
   21.4173  -63.3688    0.7837 C   0  0  0  0  0  0  0  0  0  0  0  0
   21.0687  -64.7660    1.2322 C   0  0  0  0  0  0  0  0  0  0  0  0
   19.7319  -64.7304    1.7858 O   0  0  0  0  0  0  0  0  0  0  0  0
   18.4610  -65.1550    0.9121 P   0  0  0  0  0  0  0  0  0  0  0  0
   18.5403  -64.4397   -0.3771 O   0  0  0  0  0  0  0  0  0  0  0  0
   18.3611  -66.6352    0.9027 O   0  0  0  0  0  0  0  0  0  0  0  0
   18.3171  -66.9621    1.8149 H   0  0  0  0  0  0  0  0  0  0  0  0
   17.2345  -64.5874    1.7549 O   0  0  0  0  0  0  0  0  0  0  0  0
   15.6444  -64.5470    1.5750 P   0  0  0  0  0  0  0  0  0  0  0  0
   15.1092  -63.7020    2.7721 O   0  0  0  0  0  0  0  0  0  0  0  0
   15.3643  -63.8280    0.3025 O   0  0  0  0  0  0  0  0  0  0  0  0
   15.1578  -65.9423    1.6880 O   0  0  0  0  0  0  0  0  0  0  0  0
   15.4305  -62.7901    2.6934 H   0  0  0  0  0  0  0  0  0  0  0  0
   15.4001  -66.2999    2.5565 H   0  0  0  0  0  0  0  0  0  0  0  0
  9 10  2  0  0  0
  9 16  1  0  0  0
 10 11  1  0  0  0
 10 12  1  0  0  0
 12 13  2  0  0  0
 13 14  1  0  0  0
 13 15  1  0  0  0
 15 16  2  0  0  0
 15  8  1  0  0  0
  8  1  1  0  0  0
  1  2  1  0  0  0
  1  6  1  0  0  0
  2  3  2  0  0  0
  2  4  1  0  0  0
  4  5  1  0  0  0
  5  6  2  0  0  0
  5 19  1  0  0  0
  6  7  1  0  0  0
 19 20  1  0  0  0
 20 21  1  0  0  0
 21 22  1  0  0  0
 22 26  1  0  0  0
 22 23  2  0  0  0
 22 24  1  0  0  0
 26 27  1  0  0  0
 27 28  1  0  0  0
 27 29  2  0  0  0
 27 30  1  0  0  0
 14 17  1  0  0  0
 14 18  1  0  0  0
 24 25  1  0  0  0
 28 31  1  0  0  0
 30 32  1  0  0  0
M  END
> <minimizedAffinity>
-8.23221

$$$$
