3T01_PPF_A_503


 10  9  0  0  0  0  0  0  0  0999 V2000
   -0.4542   35.2081   21.7982 O   0  0  0  0  0  0  0  0  0  0  0  0
    0.8058   34.7230   19.6571 O   0  0  0  0  0  0  0  0  0  0  0  0
    1.7857   34.0724   21.8894 O   0  0  0  0  0  0  0  0  0  0  0  0
    0.5278   34.3074   21.0894 P   0  0  0  0  0  0  0  0  0  0  0  0
   -1.2418   35.3269   21.2446 H   0  0  0  0  0  0  0  0  0  0  0  0
   -0.0340   34.8600   19.1914 H   0  0  0  0  0  0  0  0  0  0  0  0
   -0.2393   32.7642   21.0258 C   0  0  0  0  0  0  0  0  0  0  0  0
   -1.4201   32.7073   20.6184 O   0  0  0  0  0  0  0  0  0  0  0  0
    0.3551   31.7246   21.3923 O   0  0  0  0  0  0  0  0  0  0  0  0
   -1.8597   33.4884   20.3455 H   0  0  0  0  0  0  0  0  0  0  0  0
  7  8  1  0  0  0
  7  9  2  0  0  0
  7  4  1  0  0  0
  1  4  1  0  0  0
  2  4  1  0  0  0
  3  4  2  0  0  0
  1  5  1  0  0  0
  2  6  1  0  0  0
  8 10  1  0  0  0
M  END
> <minimizedAffinity>
-4.48424

$$$$
3T01_PPF_A_503


 10  9  0  0  0  0  0  0  0  0999 V2000
   -1.1724   31.0729   19.5555 O   0  0  0  0  0  0  0  0  0  0  0  0
    0.1763   30.7877   21.6784 O   0  0  0  0  0  0  0  0  0  0  0  0
    1.0748   32.1764   19.7729 O   0  0  0  0  0  0  0  0  0  0  0  0
   -0.1532   31.6741   20.4922 P   0  0  0  0  0  0  0  0  0  0  0  0
   -1.9389   30.7666   20.0650 H   0  0  0  0  0  0  0  0  0  0  0  0
   -0.6460   30.4948   22.1014 H   0  0  0  0  0  0  0  0  0  0  0  0
   -0.8998   33.0967   21.1191 C   0  0  0  0  0  0  0  0  0  0  0  0
   -0.3574   34.1996   20.8890 O   0  0  0  0  0  0  0  0  0  0  0  0
   -1.9474   33.0364   21.8028 O   0  0  0  0  0  0  0  0  0  0  0  0
    0.4263   34.2384   20.3768 H   0  0  0  0  0  0  0  0  0  0  0  0
  7  8  1  0  0  0
  7  9  2  0  0  0
  7  4  1  0  0  0
  1  4  1  0  0  0
  2  4  1  0  0  0
  3  4  2  0  0  0
  1  5  1  0  0  0
  2  6  1  0  0  0
  8 10  1  0  0  0
M  END
> <minimizedAffinity>
-4.44452

$$$$
3T01_PPF_A_503


 10  9  0  0  0  0  0  0  0  0999 V2000
   -0.6636   32.7849   19.4289 O   0  0  0  0  0  0  0  0  0  0  0  0
   -1.8210   32.8288   21.6797 O   0  0  0  0  0  0  0  0  0  0  0  0
    0.4063   31.6734   21.4126 O   0  0  0  0  0  0  0  0  0  0  0  0
   -0.5034   32.7765   20.9297 P   0  0  0  0  0  0  0  0  0  0  0  0
   -1.2549   33.5093   19.1709 H   0  0  0  0  0  0  0  0  0  0  0  0
   -2.3637   33.5526   21.3299 H   0  0  0  0  0  0  0  0  0  0  0  0
    0.3453   34.2311   21.3013 C   0  0  0  0  0  0  0  0  0  0  0  0
   -0.3194   35.2300   21.6532 O   0  0  0  0  0  0  0  0  0  0  0  0
    1.5922   34.3011   21.2072 O   0  0  0  0  0  0  0  0  0  0  0  0
   -1.2520   35.1716   21.7219 H   0  0  0  0  0  0  0  0  0  0  0  0
  7  8  1  0  0  0
  7  9  2  0  0  0
  7  4  1  0  0  0
  1  4  1  0  0  0
  2  4  1  0  0  0
  3  4  2  0  0  0
  1  5  1  0  0  0
  2  6  1  0  0  0
  8 10  1  0  0  0
M  END
> <minimizedAffinity>
-4.37269

$$$$
3T01_PPF_A_503


 10  9  0  0  0  0  0  0  0  0999 V2000
    0.0798   33.4466   19.5491 O   0  0  0  0  0  0  0  0  0  0  0  0
    1.1950   32.8282   21.7358 O   0  0  0  0  0  0  0  0  0  0  0  0
    1.2303   35.2142   20.9156 O   0  0  0  0  0  0  0  0  0  0  0  0
    0.4871   33.9008   20.9297 P   0  0  0  0  0  0  0  0  0  0  0  0
   -0.3924   32.6017   19.6129 H   0  0  0  0  0  0  0  0  0  0  0  0
    0.6757   32.0093   21.7107 H   0  0  0  0  0  0  0  0  0  0  0  0
   -0.9920   34.2492   21.7451 C   0  0  0  0  0  0  0  0  0  0  0  0
   -1.1601   35.4026   22.1978 O   0  0  0  0  0  0  0  0  0  0  0  0
   -1.8731   33.3729   21.9009 O   0  0  0  0  0  0  0  0  0  0  0  0
   -0.4973   36.0540   22.0782 H   0  0  0  0  0  0  0  0  0  0  0  0
  7  8  1  0  0  0
  7  9  2  0  0  0
  7  4  1  0  0  0
  1  4  1  0  0  0
  2  4  1  0  0  0
  3  4  2  0  0  0
  1  5  1  0  0  0
  2  6  1  0  0  0
  8 10  1  0  0  0
M  END
> <minimizedAffinity>
-4.35897

$$$$
3T01_PPF_A_503


 10  9  0  0  0  0  0  0  0  0999 V2000
    2.2048   30.7827   23.0383 O   0  0  0  0  0  0  0  0  0  0  0  0
    2.5985   33.1116   22.1280 O   0  0  0  0  0  0  0  0  0  0  0  0
    3.2788   31.0856   20.7867 O   0  0  0  0  0  0  0  0  0  0  0  0
    2.3271   31.6530   21.8113 P   0  0  0  0  0  0  0  0  0  0  0  0
    1.5844   31.1899   23.6630 H   0  0  0  0  0  0  0  0  0  0  0  0
    1.9605   33.4231   22.7889 H   0  0  0  0  0  0  0  0  0  0  0  0
    0.7806   31.5823   21.0514 C   0  0  0  0  0  0  0  0  0  0  0  0
   -0.0449   30.7407   21.4681 O   0  0  0  0  0  0  0  0  0  0  0  0
    0.4884   32.3367   20.0954 O   0  0  0  0  0  0  0  0  0  0  0  0
    0.1793   30.1790   22.1837 H   0  0  0  0  0  0  0  0  0  0  0  0
  7  8  1  0  0  0
  7  9  2  0  0  0
  7  4  1  0  0  0
  1  4  1  0  0  0
  2  4  1  0  0  0
  3  4  2  0  0  0
  1  5  1  0  0  0
  2  6  1  0  0  0
  8 10  1  0  0  0
M  END
> <minimizedAffinity>
-4.29455

$$$$
3T01_PPF_A_503


 10  9  0  0  0  0  0  0  0  0999 V2000
   -0.1121   33.0308   18.9652 O   0  0  0  0  0  0  0  0  0  0  0  0
   -1.6769   32.7593   20.9362 O   0  0  0  0  0  0  0  0  0  0  0  0
   -1.2674   30.8339   19.3577 O   0  0  0  0  0  0  0  0  0  0  0  0
   -0.7067   32.0878   19.9827 P   0  0  0  0  0  0  0  0  0  0  0  0
    0.2328   33.8173   19.4161 H   0  0  0  0  0  0  0  0  0  0  0  0
   -1.2666   33.5561   21.3071 H   0  0  0  0  0  0  0  0  0  0  0  0
    0.6291   31.5409   20.9264 C   0  0  0  0  0  0  0  0  0  0  0  0
    0.4108   30.7087   21.8336 O   0  0  0  0  0  0  0  0  0  0  0  0
    1.7879   31.9728   20.7285 O   0  0  0  0  0  0  0  0  0  0  0  0
   -0.4583   30.3891   21.9771 H   0  0  0  0  0  0  0  0  0  0  0  0
  7  8  1  0  0  0
  7  9  2  0  0  0
  7  4  1  0  0  0
  1  4  1  0  0  0
  2  4  1  0  0  0
  3  4  2  0  0  0
  1  5  1  0  0  0
  2  6  1  0  0  0
  8 10  1  0  0  0
M  END
> <minimizedAffinity>
-4.28629

$$$$
3T01_PPF_A_503


 10  9  0  0  0  0  0  0  0  0999 V2000
    0.0070   30.7387   21.4168 O   0  0  0  0  0  0  0  0  0  0  0  0
    1.8218   31.2180   19.7184 O   0  0  0  0  0  0  0  0  0  0  0  0
    0.7057   33.1092   20.9611 O   0  0  0  0  0  0  0  0  0  0  0  0
    1.1245   31.6597   20.9912 P   0  0  0  0  0  0  0  0  0  0  0  0
    0.3263   29.8227   21.4197 H   0  0  0  0  0  0  0  0  0  0  0  0
    2.0678   30.2826   19.7924 H   0  0  0  0  0  0  0  0  0  0  0  0
    2.2896   31.5721   22.2597 C   0  0  0  0  0  0  0  0  0  0  0  0
    2.2023   30.6314   23.0787 O   0  0  0  0  0  0  0  0  0  0  0  0
    3.1922   32.4324   22.3769 O   0  0  0  0  0  0  0  0  0  0  0  0
    1.5250   29.9907   22.9859 H   0  0  0  0  0  0  0  0  0  0  0  0
  7  8  1  0  0  0
  7  9  2  0  0  0
  7  4  1  0  0  0
  1  4  1  0  0  0
  2  4  1  0  0  0
  3  4  2  0  0  0
  1  5  1  0  0  0
  2  6  1  0  0  0
  8 10  1  0  0  0
M  END
> <minimizedAffinity>
-4.20681

$$$$
3T01_PPF_A_503


 10  9  0  0  0  0  0  0  0  0999 V2000
   -0.0689   32.7723   21.2786 O   0  0  0  0  0  0  0  0  0  0  0  0
   -0.2844   35.2672   21.6482 O   0  0  0  0  0  0  0  0  0  0  0  0
    1.9001   34.0927   22.1119 O   0  0  0  0  0  0  0  0  0  0  0  0
    0.6306   34.1096   21.2961 P   0  0  0  0  0  0  0  0  0  0  0  0
   -0.8753   32.8362   20.7433 H   0  0  0  0  0  0  0  0  0  0  0  0
   -1.0811   35.2290   21.0962 H   0  0  0  0  0  0  0  0  0  0  0  0
    1.1614   34.3627   19.6749 C   0  0  0  0  0  0  0  0  0  0  0  0
    0.4686   33.8935   18.7458 O   0  0  0  0  0  0  0  0  0  0  0  0
    2.2203   34.9829   19.4245 O   0  0  0  0  0  0  0  0  0  0  0  0
   -0.3227   33.4304   18.9393 H   0  0  0  0  0  0  0  0  0  0  0  0
  7  8  1  0  0  0
  7  9  2  0  0  0
  7  4  1  0  0  0
  1  4  1  0  0  0
  2  4  1  0  0  0
  3  4  2  0  0  0
  1  5  1  0  0  0
  2  6  1  0  0  0
  8 10  1  0  0  0
M  END
> <minimizedAffinity>
-4.17664

$$$$
3T01_PPF_A_503


 10  9  0  0  0  0  0  0  0  0999 V2000
   -0.9880   33.3419   21.4664 O   0  0  0  0  0  0  0  0  0  0  0  0
    0.3762   33.6486   19.3564 O   0  0  0  0  0  0  0  0  0  0  0  0
    1.4293   34.0112   21.6205 O   0  0  0  0  0  0  0  0  0  0  0  0
    0.3775   33.2755   20.8268 P   0  0  0  0  0  0  0  0  0  0  0  0
   -1.6251   32.8559   20.9197 H   0  0  0  0  0  0  0  0  0  0  0  0
   -0.3161   33.1485   18.8965 H   0  0  0  0  0  0  0  0  0  0  0  0
    0.8420   31.6176   20.9250 C   0  0  0  0  0  0  0  0  0  0  0  0
    0.0706   30.8206   21.5021 O   0  0  0  0  0  0  0  0  0  0  0  0
    1.9289   31.2155   20.4502 O   0  0  0  0  0  0  0  0  0  0  0  0
   -0.7413   31.1272   21.8554 H   0  0  0  0  0  0  0  0  0  0  0  0
  7  8  1  0  0  0
  7  9  2  0  0  0
  7  4  1  0  0  0
  1  4  1  0  0  0
  2  4  1  0  0  0
  3  4  2  0  0  0
  1  5  1  0  0  0
  2  6  1  0  0  0
  8 10  1  0  0  0
M  END
> <minimizedAffinity>
-4.10702

$$$$
3T01_PPF_A_503


 10  9  0  0  0  0  0  0  0  0999 V2000
    4.2603   33.1003   22.9882 O   0  0  0  0  0  0  0  0  0  0  0  0
    3.2096   33.1913   20.6871 O   0  0  0  0  0  0  0  0  0  0  0  0
    4.9099   31.4121   21.2437 O   0  0  0  0  0  0  0  0  0  0  0  0
    3.8282   32.3246   21.7676 P   0  0  0  0  0  0  0  0  0  0  0  0
    3.5325   33.6691   23.2841 H   0  0  0  0  0  0  0  0  0  0  0  0
    2.5238   33.7551   21.0779 H   0  0  0  0  0  0  0  0  0  0  0  0
    2.5937   31.2571   22.3247 C   0  0  0  0  0  0  0  0  0  0  0  0
    2.9322   30.2696   23.0129 O   0  0  0  0  0  0  0  0  0  0  0  0
    1.3892   31.4466   22.0383 O   0  0  0  0  0  0  0  0  0  0  0  0
    3.8348   30.1330   23.2240 H   0  0  0  0  0  0  0  0  0  0  0  0
  7  8  1  0  0  0
  7  9  2  0  0  0
  7  4  1  0  0  0
  1  4  1  0  0  0
  2  4  1  0  0  0
  3  4  2  0  0  0
  1  5  1  0  0  0
  2  6  1  0  0  0
  8 10  1  0  0  0
M  END
> <minimizedAffinity>
-4.05583

$$$$
