5NYA_FB2_A_302


 12 12  0  0  0  0  0  0  0  0999 V2000
   -4.6221    6.5388   14.7937 C   0  0  0  0  0  0  0  0  0  0  0  0
   -3.8090    5.4377   15.1076 C   0  0  0  0  0  0  0  0  0  0  0  0
   -4.3133    4.3984   15.8717 C   0  0  0  0  0  0  0  0  0  0  0  0
   -5.6228    4.4330   16.3318 C   0  0  0  0  0  0  0  0  0  0  0  0
   -6.4659    5.5400   16.0259 C   0  0  0  0  0  0  0  0  0  0  0  0
   -5.9358    6.5741   15.2443 C   0  0  0  0  0  0  0  0  0  0  0  0
   -6.2884    3.1291   17.3115 S   0  0  0  0  0  0  0  0  0  0  0  0
   -6.1260    3.5739   18.6945 O   0  0  0  0  0  0  0  0  0  0  0  0
   -7.6433    2.9569   16.8092 O   0  0  0  0  0  0  0  0  0  0  0  0
   -5.4167    1.7985   17.0307 N   0  0  0  0  0  0  0  0  0  0  0  0
   -5.5447    1.5064   16.0618 H   0  0  0  0  0  0  0  0  0  0  0  0
   -5.7247    1.0524   17.6543 H   0  0  0  0  0  0  0  0  0  0  0  0
  1  2  1  0  0  0
  1  6  2  0  0  0
  2  3  2  0  0  0
  3  4  1  0  0  0
  4  5  2  0  0  0
  4  7  1  0  0  0
  5  6  1  0  0  0
  7  9  2  0  0  0
  7  8  2  0  0  0
  7 10  1  0  0  0
 10 11  1  0  0  0
 10 12  1  0  0  0
M  END
> <minimizedAffinity>
-6.07841

$$$$
5NYA_FB2_A_302


 12 12  0  0  0  0  0  0  0  0999 V2000
   -4.6098    6.5204   14.7755 C   0  0  0  0  0  0  0  0  0  0  0  0
   -5.9402    6.5643   15.2229 C   0  0  0  0  0  0  0  0  0  0  0  0
   -6.4486    5.5292   15.9901 C   0  0  0  0  0  0  0  0  0  0  0  0
   -5.6513    4.4430   16.3251 C   0  0  0  0  0  0  0  0  0  0  0  0
   -4.2988    4.3770   15.8820 C   0  0  0  0  0  0  0  0  0  0  0  0
   -3.8054    5.4399   15.1153 C   0  0  0  0  0  0  0  0  0  0  0  0
   -6.2733    3.1091   17.2930 S   0  0  0  0  0  0  0  0  0  0  0  0
   -6.1213    3.5449   18.6801 O   0  0  0  0  0  0  0  0  0  0  0  0
   -7.6235    2.8998   16.7921 O   0  0  0  0  0  0  0  0  0  0  0  0
   -5.3612    1.8094   16.9968 N   0  0  0  0  0  0  0  0  0  0  0  0
   -5.4825    1.5232   16.0253 H   0  0  0  0  0  0  0  0  0  0  0  0
   -5.6441    1.0478   17.6135 H   0  0  0  0  0  0  0  0  0  0  0  0
  1  2  1  0  0  0
  1  6  2  0  0  0
  2  3  2  0  0  0
  3  4  1  0  0  0
  4  5  2  0  0  0
  4  7  1  0  0  0
  5  6  1  0  0  0
  7  9  2  0  0  0
  7  8  2  0  0  0
  7 10  1  0  0  0
 10 11  1  0  0  0
 10 12  1  0  0  0
M  END
> <minimizedAffinity>
-6.06171

$$$$
5NYA_FB2_A_302


 12 12  0  0  0  0  0  0  0  0999 V2000
   -6.2506    6.8242   15.5354 C   0  0  0  0  0  0  0  0  0  0  0  0
   -5.2141    6.4450   14.6672 C   0  0  0  0  0  0  0  0  0  0  0  0
   -4.7204    5.1513   14.6994 C   0  0  0  0  0  0  0  0  0  0  0  0
   -5.2441    4.2192   15.5852 C   0  0  0  0  0  0  0  0  0  0  0  0
   -6.2959    4.5815   16.4754 C   0  0  0  0  0  0  0  0  0  0  0  0
   -6.7839    5.8928   16.4175 C   0  0  0  0  0  0  0  0  0  0  0  0
   -4.6310    2.5692   15.6533 S   0  0  0  0  0  0  0  0  0  0  0  0
   -3.3633    2.6659   16.3749 O   0  0  0  0  0  0  0  0  0  0  0  0
   -5.7075    1.8104   16.2723 O   0  0  0  0  0  0  0  0  0  0  0  0
   -4.3916    2.0625   14.1384 N   0  0  0  0  0  0  0  0  0  0  0  0
   -5.2874    2.0025   13.6544 H   0  0  0  0  0  0  0  0  0  0  0  0
   -3.9507    1.1428   14.1532 H   0  0  0  0  0  0  0  0  0  0  0  0
  1  2  1  0  0  0
  1  6  2  0  0  0
  2  3  2  0  0  0
  3  4  1  0  0  0
  4  5  2  0  0  0
  4  7  1  0  0  0
  5  6  1  0  0  0
  7  9  2  0  0  0
  7  8  2  0  0  0
  7 10  1  0  0  0
 10 11  1  0  0  0
 10 12  1  0  0  0
M  END
> <minimizedAffinity>
-6.04001

$$$$
5NYA_FB2_A_302


 12 12  0  0  0  0  0  0  0  0999 V2000
   -6.5691    3.6186   17.8080 C   0  0  0  0  0  0  0  0  0  0  0  0
   -5.7574    2.5741   17.3367 C   0  0  0  0  0  0  0  0  0  0  0  0
   -5.1244    2.6869   16.1098 C   0  0  0  0  0  0  0  0  0  0  0  0
   -5.2834    3.8296   15.3374 C   0  0  0  0  0  0  0  0  0  0  0  0
   -6.1023    4.9018   15.7953 C   0  0  0  0  0  0  0  0  0  0  0  0
   -6.7243    4.7677   17.0428 C   0  0  0  0  0  0  0  0  0  0  0  0
   -4.4966    3.9974   13.7703 S   0  0  0  0  0  0  0  0  0  0  0  0
   -5.5190    4.5633   12.8920 O   0  0  0  0  0  0  0  0  0  0  0  0
   -3.3164    4.8035   14.0445 O   0  0  0  0  0  0  0  0  0  0  0  0
   -4.0615    2.5246   13.2697 N   0  0  0  0  0  0  0  0  0  0  0  0
   -3.3489    2.1495   13.8957 H   0  0  0  0  0  0  0  0  0  0  0  0
   -3.6856    2.5844   12.3234 H   0  0  0  0  0  0  0  0  0  0  0  0
  1  2  1  0  0  0
  1  6  2  0  0  0
  2  3  2  0  0  0
  3  4  1  0  0  0
  4  5  2  0  0  0
  4  7  1  0  0  0
  5  6  1  0  0  0
  7  9  2  0  0  0
  7  8  2  0  0  0
  7 10  1  0  0  0
 10 11  1  0  0  0
 10 12  1  0  0  0
M  END
> <minimizedAffinity>
-5.59137

$$$$
5NYA_FB2_A_302


 12 12  0  0  0  0  0  0  0  0999 V2000
   -6.5691    3.6533   17.7999 C   0  0  0  0  0  0  0  0  0  0  0  0
   -6.7283    4.8177   17.0313 C   0  0  0  0  0  0  0  0  0  0  0  0
   -6.1028    4.9274   15.8004 C   0  0  0  0  0  0  0  0  0  0  0  0
   -5.3168    3.8911   15.3146 C   0  0  0  0  0  0  0  0  0  0  0  0
   -5.1409    2.7005   16.0772 C   0  0  0  0  0  0  0  0  0  0  0  0
   -5.7908    2.6100   17.3144 C   0  0  0  0  0  0  0  0  0  0  0  0
   -4.5037    4.0059   13.7562 S   0  0  0  0  0  0  0  0  0  0  0  0
   -5.5156    4.5265   12.8386 O   0  0  0  0  0  0  0  0  0  0  0  0
   -3.3365    4.8344   14.0194 O   0  0  0  0  0  0  0  0  0  0  0  0
   -4.0453    2.5194   13.3214 N   0  0  0  0  0  0  0  0  0  0  0  0
   -3.3404    2.1764   13.9740 H   0  0  0  0  0  0  0  0  0  0  0  0
   -3.6530    2.5462   12.3803 H   0  0  0  0  0  0  0  0  0  0  0  0
  1  2  1  0  0  0
  1  6  2  0  0  0
  2  3  2  0  0  0
  3  4  1  0  0  0
  4  5  2  0  0  0
  4  7  1  0  0  0
  5  6  1  0  0  0
  7  9  2  0  0  0
  7  8  2  0  0  0
  7 10  1  0  0  0
 10 11  1  0  0  0
 10 12  1  0  0  0
M  END
> <minimizedAffinity>
-5.58852

$$$$
5NYA_FB2_A_302


 12 12  0  0  0  0  0  0  0  0999 V2000
   -6.5812    3.7574   17.8362 C   0  0  0  0  0  0  0  0  0  0  0  0
   -6.7829    4.8728   17.0073 C   0  0  0  0  0  0  0  0  0  0  0  0
   -6.1621    4.9397   15.7709 C   0  0  0  0  0  0  0  0  0  0  0  0
   -5.3390    3.9085   15.3391 C   0  0  0  0  0  0  0  0  0  0  0  0
   -5.1196    2.7672   16.1633 C   0  0  0  0  0  0  0  0  0  0  0  0
   -5.7654    2.7189   17.4050 C   0  0  0  0  0  0  0  0  0  0  0  0
   -4.5309    3.9700   13.7751 S   0  0  0  0  0  0  0  0  0  0  0  0
   -4.0833    2.6008   13.5261 O   0  0  0  0  0  0  0  0  0  0  0  0
   -5.5284    4.5313   12.8763 O   0  0  0  0  0  0  0  0  0  0  0  0
   -3.2701    4.9713   13.9035 N   0  0  0  0  0  0  0  0  0  0  0  0
   -3.6049    5.9191   14.0766 H   0  0  0  0  0  0  0  0  0  0  0  0
   -2.7323    4.9537   13.0369 H   0  0  0  0  0  0  0  0  0  0  0  0
  1  2  1  0  0  0
  1  6  2  0  0  0
  2  3  2  0  0  0
  3  4  1  0  0  0
  4  5  2  0  0  0
  4  7  1  0  0  0
  5  6  1  0  0  0
  7  9  2  0  0  0
  7  8  2  0  0  0
  7 10  1  0  0  0
 10 11  1  0  0  0
 10 12  1  0  0  0
M  END
> <minimizedAffinity>
-5.55841

$$$$
5NYA_FB2_A_302


 12 12  0  0  0  0  0  0  0  0999 V2000
   -6.8691    2.9241   17.3400 C   0  0  0  0  0  0  0  0  0  0  0  0
   -7.2319    4.2244   16.9533 C   0  0  0  0  0  0  0  0  0  0  0  0
   -6.3530    4.9992   16.2146 C   0  0  0  0  0  0  0  0  0  0  0  0
   -5.1103    4.5000   15.8485 C   0  0  0  0  0  0  0  0  0  0  0  0
   -4.7207    3.1836   16.2298 C   0  0  0  0  0  0  0  0  0  0  0  0
   -5.6302    2.4168   16.9686 C   0  0  0  0  0  0  0  0  0  0  0  0
   -3.9696    5.4653   14.9157 S   0  0  0  0  0  0  0  0  0  0  0  0
   -4.4074    6.8483   15.0966 O   0  0  0  0  0  0  0  0  0  0  0  0
   -2.6659    5.0921   15.4437 O   0  0  0  0  0  0  0  0  0  0  0  0
   -4.0909    5.0232   13.3669 N   0  0  0  0  0  0  0  0  0  0  0  0
   -3.7809    4.0569   13.2639 H   0  0  0  0  0  0  0  0  0  0  0  0
   -3.5062    5.6308   12.7930 H   0  0  0  0  0  0  0  0  0  0  0  0
  1  2  1  0  0  0
  1  6  2  0  0  0
  2  3  2  0  0  0
  3  4  1  0  0  0
  4  5  2  0  0  0
  4  7  1  0  0  0
  5  6  1  0  0  0
  7  9  2  0  0  0
  7  8  2  0  0  0
  7 10  1  0  0  0
 10 11  1  0  0  0
 10 12  1  0  0  0
M  END
> <minimizedAffinity>
-5.31835

$$$$
5NYA_FB2_A_302


 12 12  0  0  0  0  0  0  0  0999 V2000
   -6.6303    5.6383   16.6533 C   0  0  0  0  0  0  0  0  0  0  0  0
   -6.2819    6.3995   15.5259 C   0  0  0  0  0  0  0  0  0  0  0  0
   -5.6091    5.8074   14.4698 C   0  0  0  0  0  0  0  0  0  0  0  0
   -5.2752    4.4605   14.5136 C   0  0  0  0  0  0  0  0  0  0  0  0
   -5.6183    3.6686   15.6473 C   0  0  0  0  0  0  0  0  0  0  0  0
   -6.3062    4.2881   16.6981 C   0  0  0  0  0  0  0  0  0  0  0  0
   -4.4134    3.6828   13.1886 S   0  0  0  0  0  0  0  0  0  0  0  0
   -3.2207    4.5021   12.9802 O   0  0  0  0  0  0  0  0  0  0  0  0
   -4.2242    2.3116   13.6379 O   0  0  0  0  0  0  0  0  0  0  0  0
   -5.3669    3.7157   11.8853 N   0  0  0  0  0  0  0  0  0  0  0  0
   -6.1912    3.1387   12.0524 H   0  0  0  0  0  0  0  0  0  0  0  0
   -4.8555    3.3531   11.0807 H   0  0  0  0  0  0  0  0  0  0  0  0
  1  2  1  0  0  0
  1  6  2  0  0  0
  2  3  2  0  0  0
  3  4  1  0  0  0
  4  5  2  0  0  0
  4  7  1  0  0  0
  5  6  1  0  0  0
  7  9  2  0  0  0
  7  8  2  0  0  0
  7 10  1  0  0  0
 10 11  1  0  0  0
 10 12  1  0  0  0
M  END
> <minimizedAffinity>
-5.31598

$$$$
5NYA_FB2_A_302


 12 12  0  0  0  0  0  0  0  0999 V2000
   -6.3740    4.5173   16.6882 C   0  0  0  0  0  0  0  0  0  0  0  0
   -5.1645    3.8042   16.7147 C   0  0  0  0  0  0  0  0  0  0  0  0
   -4.0826    4.2454   15.9709 C   0  0  0  0  0  0  0  0  0  0  0  0
   -4.1813    5.3933   15.1961 C   0  0  0  0  0  0  0  0  0  0  0  0
   -5.3985    6.1326   15.1538 C   0  0  0  0  0  0  0  0  0  0  0  0
   -6.4751    5.6714   15.9215 C   0  0  0  0  0  0  0  0  0  0  0  0
   -2.8243    5.9736   14.2345 S   0  0  0  0  0  0  0  0  0  0  0  0
   -2.8887    5.2101   12.9895 O   0  0  0  0  0  0  0  0  0  0  0  0
   -3.0262    7.4128   14.1586 O   0  0  0  0  0  0  0  0  0  0  0  0
   -1.4639    5.6434   15.0403 N   0  0  0  0  0  0  0  0  0  0  0  0
   -1.4400    6.1859   15.9037 H   0  0  0  0  0  0  0  0  0  0  0  0
   -0.6591    5.8874   14.4630 H   0  0  0  0  0  0  0  0  0  0  0  0
  1  2  1  0  0  0
  1  6  2  0  0  0
  2  3  2  0  0  0
  3  4  1  0  0  0
  4  5  2  0  0  0
  4  7  1  0  0  0
  5  6  1  0  0  0
  7  9  2  0  0  0
  7  8  2  0  0  0
  7 10  1  0  0  0
 10 11  1  0  0  0
 10 12  1  0  0  0
M  END
> <minimizedAffinity>
-5.28785

$$$$
5NYA_FB2_A_302


 12 12  0  0  0  0  0  0  0  0999 V2000
   -6.9065    2.9452   17.3683 C   0  0  0  0  0  0  0  0  0  0  0  0
   -5.6846    2.3442   17.0255 C   0  0  0  0  0  0  0  0  0  0  0  0
   -4.7706    3.0286   16.2415 C   0  0  0  0  0  0  0  0  0  0  0  0
   -5.0508    4.3112   15.7898 C   0  0  0  0  0  0  0  0  0  0  0  0
   -6.2842    4.9407   16.1250 C   0  0  0  0  0  0  0  0  0  0  0  0
   -7.1879    4.2318   16.9261 C   0  0  0  0  0  0  0  0  0  0  0  0
   -3.9105    5.2024   14.7855 S   0  0  0  0  0  0  0  0  0  0  0  0
   -2.6536    5.1834   15.5317 O   0  0  0  0  0  0  0  0  0  0  0  0
   -3.9480    4.5162   13.5027 O   0  0  0  0  0  0  0  0  0  0  0  0
   -4.4601    6.7128   14.6258 N   0  0  0  0  0  0  0  0  0  0  0  0
   -5.3360    6.7024   14.1032 H   0  0  0  0  0  0  0  0  0  0  0  0
   -3.7716    7.2739   14.1243 H   0  0  0  0  0  0  0  0  0  0  0  0
  1  2  1  0  0  0
  1  6  2  0  0  0
  2  3  2  0  0  0
  3  4  1  0  0  0
  4  5  2  0  0  0
  4  7  1  0  0  0
  5  6  1  0  0  0
  7  9  2  0  0  0
  7  8  2  0  0  0
  7 10  1  0  0  0
 10 11  1  0  0  0
 10 12  1  0  0  0
M  END
> <minimizedAffinity>
-5.27515

$$$$
