2WC4_AMF_A_1446


 26 27  0  0  0  0  0  0  0  0999 V2000
    5.8348    3.4976    2.8364 O   0  0  0  0  0  0  0  0  0  0  0  0
    4.9630    3.7625    3.9502 C   0  0  0  0  0  0  0  0  0  0  0  0
    5.7586    3.5101    5.2380 C   0  0  0  0  0  0  0  0  0  0  0  0
    7.1023    4.2513    5.3524 C   0  0  0  0  0  0  0  0  0  0  0  0
    7.4115    4.5216    7.0830 S   0  0  0  0  0  0  0  0  0  0  0  0
    3.7667    2.8201    3.9680 C   0  0  0  0  0  0  0  0  0  0  0  0
    2.9745    2.9410    2.8009 O   0  0  0  0  0  0  0  0  0  0  0  0
    2.7985    3.2201    5.0818 C   0  0  0  0  0  0  0  0  0  0  0  0
    1.8946    2.1303    5.3377 O   0  0  0  0  0  0  0  0  0  0  0  0
    3.4939    3.5456    6.4125 C   0  0  0  0  0  0  0  0  0  0  0  0
    2.7925    4.6350    7.0549 O   0  0  0  0  0  0  0  0  0  0  0  0
    4.9090    3.8660    6.4030 N   0  0  0  0  0  0  0  0  0  0  0  0
    5.7077    4.3732    7.4566 C   0  0  0  0  0  0  0  0  0  0  0  0
    5.2288    4.7489    8.6630 N   0  0  0  0  0  0  0  0  0  0  0  0
    6.5829    4.1146    2.8573 H   0  0  0  0  0  0  0  0  0  0  0  0
    2.6210    3.8423    2.7419 H   0  0  0  0  0  0  0  0  0  0  0  0
    2.3964    1.3597    5.6462 H   0  0  0  0  0  0  0  0  0  0  0  0
    2.8829    5.4385    6.5189 H   0  0  0  0  0  0  0  0  0  0  0  0
    6.0487    5.3003    9.7685 C   0  0  0  0  0  0  0  0  0  0  0  0
    5.1859    5.8620   10.8854 C   0  0  0  0  0  0  0  0  0  0  0  0
    3.7599    5.3109   10.7884 C   0  0  0  0  0  0  0  0  0  0  0  0
    3.1965    5.2088   12.2072 C   0  0  0  0  0  0  0  0  0  0  0  0
    2.3975    6.4617   12.5444 C   0  0  0  0  0  0  0  0  0  0  0  0
    0.8999    6.1834   12.3764 C   0  0  0  0  0  0  0  0  0  0  0  0
    0.2891    7.2673   11.5034 C   0  0  0  0  0  0  0  0  0  0  0  0
    0.7680    7.0778   10.0752 C   0  0  0  0  0  0  0  0  0  0  0  0
 21 22  1  0  0  0
 22 23  1  0  0  0
 23 24  1  0  0  0
 24 25  1  0  0  0
 25 26  1  0  0  0
  1  2  1  0  0  0
  2  3  1  0  0  0
  3  4  1  0  0  0
  4  5  1  0  0  0
  2  6  1  0  0  0
  6  7  1  0  0  0
  6  8  1  0  0  0
  8  9  1  0  0  0
  8 10  1  0  0  0
 10 11  1  0  0  0
  3 12  1  0  0  0
 10 12  1  0  0  0
  5 13  1  0  0  0
 12 13  1  0  0  0
 13 14  2  0  0  0
 14 19  1  0  0  0
 19 20  1  0  0  0
 20 21  1  0  0  0
  1 15  1  0  0  0
  7 16  1  0  0  0
  9 17  1  0  0  0
 11 18  1  0  0  0
M  END
> <minimizedAffinity>
-8.30315

$$$$
2WC4_AMF_A_1446


 26 27  0  0  0  0  0  0  0  0999 V2000
    6.5328    5.2149    2.6530 O   0  0  0  0  0  0  0  0  0  0  0  0
    5.8816    4.2654    3.5163 C   0  0  0  0  0  0  0  0  0  0  0  0
    6.1151    4.7130    4.9655 C   0  0  0  0  0  0  0  0  0  0  0  0
    5.7269    6.1664    5.2894 C   0  0  0  0  0  0  0  0  0  0  0  0
    5.2681    6.2210    7.0070 S   0  0  0  0  0  0  0  0  0  0  0  0
    6.4776    2.8711    3.3741 C   0  0  0  0  0  0  0  0  0  0  0  0
    6.3510    2.3682    2.0567 O   0  0  0  0  0  0  0  0  0  0  0  0
    5.6732    1.8683    4.2020 C   0  0  0  0  0  0  0  0  0  0  0  0
    6.4451    0.6657    4.3700 O   0  0  0  0  0  0  0  0  0  0  0  0
    5.3231    2.3748    5.6095 C   0  0  0  0  0  0  0  0  0  0  0  0
    4.0037    1.9009    5.9645 O   0  0  0  0  0  0  0  0  0  0  0  0
    5.3744    3.8006    5.8735 N   0  0  0  0  0  0  0  0  0  0  0  0
    4.9214    4.5052    7.0152 C   0  0  0  0  0  0  0  0  0  0  0  0
    4.2483    3.9403    8.0418 N   0  0  0  0  0  0  0  0  0  0  0  0
    6.1285    6.0888    2.7701 H   0  0  0  0  0  0  0  0  0  0  0  0
    5.4114    2.2967    1.8268 H   0  0  0  0  0  0  0  0  0  0  0  0
    7.2570    0.8685    4.8604 H   0  0  0  0  0  0  0  0  0  0  0  0
    3.3458    2.3069    5.3786 H   0  0  0  0  0  0  0  0  0  0  0  0
    3.7501    4.6679    9.2339 C   0  0  0  0  0  0  0  0  0  0  0  0
    2.4200    5.3500    8.9637 C   0  0  0  0  0  0  0  0  0  0  0  0
    2.2742    6.6018    9.8345 C   0  0  0  0  0  0  0  0  0  0  0  0
    0.7805    6.8653   10.0350 C   0  0  0  0  0  0  0  0  0  0  0  0
    0.5175    7.3262   11.4634 C   0  0  0  0  0  0  0  0  0  0  0  0
    0.6716    6.1446   12.4270 C   0  0  0  0  0  0  0  0  0  0  0  0
    1.5681    6.5601   13.5817 C   0  0  0  0  0  0  0  0  0  0  0  0
    2.9326    5.9194   13.4015 C   0  0  0  0  0  0  0  0  0  0  0  0
 21 22  1  0  0  0
 22 23  1  0  0  0
 23 24  1  0  0  0
 24 25  1  0  0  0
 25 26  1  0  0  0
  1  2  1  0  0  0
  2  3  1  0  0  0
  3  4  1  0  0  0
  4  5  1  0  0  0
  2  6  1  0  0  0
  6  7  1  0  0  0
  6  8  1  0  0  0
  8  9  1  0  0  0
  8 10  1  0  0  0
 10 11  1  0  0  0
  3 12  1  0  0  0
 10 12  1  0  0  0
  5 13  1  0  0  0
 12 13  1  0  0  0
 13 14  2  0  0  0
 14 19  1  0  0  0
 19 20  1  0  0  0
 20 21  1  0  0  0
  1 15  1  0  0  0
  7 16  1  0  0  0
  9 17  1  0  0  0
 11 18  1  0  0  0
M  END
> <minimizedAffinity>
-8.25804

$$$$
2WC4_AMF_A_1446


 26 27  0  0  0  0  0  0  0  0999 V2000
    6.1227    2.6940    2.0430 O   0  0  0  0  0  0  0  0  0  0  0  0
    6.5125    2.9440    3.4055 C   0  0  0  0  0  0  0  0  0  0  0  0
    5.3006    3.5351    4.1384 C   0  0  0  0  0  0  0  0  0  0  0  0
    3.9958    2.7255    4.0382 C   0  0  0  0  0  0  0  0  0  0  0  0
    3.0602    3.0454    5.5167 S   0  0  0  0  0  0  0  0  0  0  0  0
    7.6355    3.9691    3.4929 C   0  0  0  0  0  0  0  0  0  0  0  0
    8.8021    3.5421    2.8137 O   0  0  0  0  0  0  0  0  0  0  0  0
    8.1121    4.1053    4.9394 C   0  0  0  0  0  0  0  0  0  0  0  0
    8.8782    5.3157    5.0736 O   0  0  0  0  0  0  0  0  0  0  0  0
    6.9655    4.1869    5.9586 C   0  0  0  0  0  0  0  0  0  0  0  0
    7.3555    3.4853    7.1615 O   0  0  0  0  0  0  0  0  0  0  0  0
    5.6490    3.7159    5.5708 N   0  0  0  0  0  0  0  0  0  0  0  0
    4.5058    3.5191    6.3828 C   0  0  0  0  0  0  0  0  0  0  0  0
    4.4943    3.6516    7.7276 N   0  0  0  0  0  0  0  0  0  0  0  0
    5.4080    2.0385    2.0263 H   0  0  0  0  0  0  0  0  0  0  0  0
    9.1337    2.7270    3.2217 H   0  0  0  0  0  0  0  0  0  0  0  0
    8.3135    6.0794    4.8763 H   0  0  0  0  0  0  0  0  0  0  0  0
    7.4543    2.5401    6.9670 H   0  0  0  0  0  0  0  0  0  0  0  0
    3.3111    3.4294    8.5932 C   0  0  0  0  0  0  0  0  0  0  0  0
    3.1317    4.5501    9.6027 C   0  0  0  0  0  0  0  0  0  0  0  0
    2.3982    5.7333    8.9635 C   0  0  0  0  0  0  0  0  0  0  0  0
    2.1822    6.7939   10.0448 C   0  0  0  0  0  0  0  0  0  0  0  0
    0.6940    7.0749   10.2126 C   0  0  0  0  0  0  0  0  0  0  0  0
    0.3323    7.0859   11.7016 C   0  0  0  0  0  0  0  0  0  0  0  0
    1.2904    6.1750   12.4513 C   0  0  0  0  0  0  0  0  0  0  0  0
    1.4367    6.6792   13.8759 C   0  0  0  0  0  0  0  0  0  0  0  0
 21 22  1  0  0  0
 22 23  1  0  0  0
 23 24  1  0  0  0
 24 25  1  0  0  0
 25 26  1  0  0  0
  1  2  1  0  0  0
  2  3  1  0  0  0
  3  4  1  0  0  0
  4  5  1  0  0  0
  2  6  1  0  0  0
  6  7  1  0  0  0
  6  8  1  0  0  0
  8  9  1  0  0  0
  8 10  1  0  0  0
 10 11  1  0  0  0
  3 12  1  0  0  0
 10 12  1  0  0  0
  5 13  1  0  0  0
 12 13  1  0  0  0
 13 14  2  0  0  0
 14 19  1  0  0  0
 19 20  1  0  0  0
 20 21  1  0  0  0
  1 15  1  0  0  0
  7 16  1  0  0  0
  9 17  1  0  0  0
 11 18  1  0  0  0
M  END
> <minimizedAffinity>
-8.01867

$$$$
2WC4_AMF_A_1446


 26 27  0  0  0  0  0  0  0  0999 V2000
    4.0412    4.3832    3.0811 O   0  0  0  0  0  0  0  0  0  0  0  0
    3.8306    4.1637    4.4875 C   0  0  0  0  0  0  0  0  0  0  0  0
    5.1849    4.3151    5.1933 C   0  0  0  0  0  0  0  0  0  0  0  0
    5.9471    5.6212    4.9087 C   0  0  0  0  0  0  0  0  0  0  0  0
    6.9368    5.9791    6.3426 S   0  0  0  0  0  0  0  0  0  0  0  0
    3.3306    2.7532    4.7705 C   0  0  0  0  0  0  0  0  0  0  0  0
    2.0947    2.4870    4.1333 O   0  0  0  0  0  0  0  0  0  0  0  0
    2.9903    2.6034    6.2537 C   0  0  0  0  0  0  0  0  0  0  0  0
    2.8928    1.2051    6.5784 O   0  0  0  0  0  0  0  0  0  0  0  0
    4.0478    3.2070    7.1904 C   0  0  0  0  0  0  0  0  0  0  0  0
    3.3831    3.7964    8.3315 O   0  0  0  0  0  0  0  0  0  0  0  0
    4.9784    4.1847    6.6582 N   0  0  0  0  0  0  0  0  0  0  0  0
    5.8987    5.0020    7.3584 C   0  0  0  0  0  0  0  0  0  0  0  0
    5.9850    5.0712    8.7053 N   0  0  0  0  0  0  0  0  0  0  0  0
    4.3584    5.2888    2.9391 H   0  0  0  0  0  0  0  0  0  0  0  0
    1.4195    3.0969    4.4696 H   0  0  0  0  0  0  0  0  0  0  0  0
    3.7506    0.7778    6.4284 H   0  0  0  0  0  0  0  0  0  0  0  0
    2.8451    4.5487    8.0392 H   0  0  0  0  0  0  0  0  0  0  0  0
    6.9288    5.9366    9.4528 C   0  0  0  0  0  0  0  0  0  0  0  0
    6.2396    6.6756   10.5869 C   0  0  0  0  0  0  0  0  0  0  0  0
    5.1323    5.8092   11.1951 C   0  0  0  0  0  0  0  0  0  0  0  0
    3.9307    6.7121   11.4809 C   0  0  0  0  0  0  0  0  0  0  0  0
    2.7374    5.8720   11.9195 C   0  0  0  0  0  0  0  0  0  0  0  0
    1.7736    5.6849   10.7429 C   0  0  0  0  0  0  0  0  0  0  0  0
    1.1177    7.0179   10.4225 C   0  0  0  0  0  0  0  0  0  0  0  0
    0.0937    7.3344   11.4978 C   0  0  0  0  0  0  0  0  0  0  0  0
 21 22  1  0  0  0
 22 23  1  0  0  0
 23 24  1  0  0  0
 24 25  1  0  0  0
 25 26  1  0  0  0
  1  2  1  0  0  0
  2  3  1  0  0  0
  3  4  1  0  0  0
  4  5  1  0  0  0
  2  6  1  0  0  0
  6  7  1  0  0  0
  6  8  1  0  0  0
  8  9  1  0  0  0
  8 10  1  0  0  0
 10 11  1  0  0  0
  3 12  1  0  0  0
 10 12  1  0  0  0
  5 13  1  0  0  0
 12 13  1  0  0  0
 13 14  2  0  0  0
 14 19  1  0  0  0
 19 20  1  0  0  0
 20 21  1  0  0  0
  1 15  1  0  0  0
  7 16  1  0  0  0
  9 17  1  0  0  0
 11 18  1  0  0  0
M  END
> <minimizedAffinity>
-7.94565

$$$$
2WC4_AMF_A_1446


 26 27  0  0  0  0  0  0  0  0999 V2000
    3.5051    2.4117    3.6544 O   0  0  0  0  0  0  0  0  0  0  0  0
    4.5559    2.7200    4.5880 C   0  0  0  0  0  0  0  0  0  0  0  0
    4.2390    4.0838    5.2163 C   0  0  0  0  0  0  0  0  0  0  0  0
    2.8385    4.2268    5.8377 C   0  0  0  0  0  0  0  0  0  0  0  0
    2.9641    5.4124    7.1576 S   0  0  0  0  0  0  0  0  0  0  0  0
    5.9070    2.8459    3.8964 C   0  0  0  0  0  0  0  0  0  0  0  0
    6.2873    1.6475    3.2456 O   0  0  0  0  0  0  0  0  0  0  0  0
    7.0134    3.0377    4.9344 C   0  0  0  0  0  0  0  0  0  0  0  0
    8.1964    3.5300    4.2801 O   0  0  0  0  0  0  0  0  0  0  0  0
    6.6560    4.0505    6.0328 C   0  0  0  0  0  0  0  0  0  0  0  0
    7.2108    3.5965    7.2888 O   0  0  0  0  0  0  0  0  0  0  0  0
    5.2606    4.3826    6.2520 N   0  0  0  0  0  0  0  0  0  0  0  0
    4.6849    5.1288    7.3088 C   0  0  0  0  0  0  0  0  0  0  0  0
    5.3694    5.5840    8.3814 N   0  0  0  0  0  0  0  0  0  0  0  0
    2.6621    2.3393    4.1288 H   0  0  0  0  0  0  0  0  0  0  0  0
    6.3722    0.9368    3.9003 H   0  0  0  0  0  0  0  0  0  0  0  0
    8.0105    4.3959    3.8843 H   0  0  0  0  0  0  0  0  0  0  0  0
    6.7762    2.7710    7.5547 H   0  0  0  0  0  0  0  0  0  0  0  0
    4.7773    6.3489    9.5052 C   0  0  0  0  0  0  0  0  0  0  0  0
    4.8404    5.5743   10.8103 C   0  0  0  0  0  0  0  0  0  0  0  0
    3.4512    5.0524   11.1903 C   0  0  0  0  0  0  0  0  0  0  0  0
    3.2126    5.3782   12.6660 C   0  0  0  0  0  0  0  0  0  0  0  0
    2.2750    6.5725   12.7934 C   0  0  0  0  0  0  0  0  0  0  0  0
    0.8460    6.1516   12.4341 C   0  0  0  0  0  0  0  0  0  0  0  0
    0.2229    7.2179   11.5484 C   0  0  0  0  0  0  0  0  0  0  0  0
    0.8449    7.1354   10.1659 C   0  0  0  0  0  0  0  0  0  0  0  0
 21 22  1  0  0  0
 22 23  1  0  0  0
 23 24  1  0  0  0
 24 25  1  0  0  0
 25 26  1  0  0  0
  1  2  1  0  0  0
  2  3  1  0  0  0
  3  4  1  0  0  0
  4  5  1  0  0  0
  2  6  1  0  0  0
  6  7  1  0  0  0
  6  8  1  0  0  0
  8  9  1  0  0  0
  8 10  1  0  0  0
 10 11  1  0  0  0
  3 12  1  0  0  0
 10 12  1  0  0  0
  5 13  1  0  0  0
 12 13  1  0  0  0
 13 14  2  0  0  0
 14 19  1  0  0  0
 19 20  1  0  0  0
 20 21  1  0  0  0
  1 15  1  0  0  0
  7 16  1  0  0  0
  9 17  1  0  0  0
 11 18  1  0  0  0
M  END
> <minimizedAffinity>
-7.73838

$$$$
2WC4_AMF_A_1446


 26 27  0  0  0  0  0  0  0  0999 V2000
    2.0752    1.7069    5.8417 O   0  0  0  0  0  0  0  0  0  0  0  0
    3.1195    2.6387    5.5074 C   0  0  0  0  0  0  0  0  0  0  0  0
    3.3219    3.5675    6.7123 C   0  0  0  0  0  0  0  0  0  0  0  0
    3.5644    2.8707    8.0628 C   0  0  0  0  0  0  0  0  0  0  0  0
    4.5615    3.9637    9.0502 S   0  0  0  0  0  0  0  0  0  0  0  0
    2.7363    3.5155    4.3225 C   0  0  0  0  0  0  0  0  0  0  0  0
    2.4877    2.7554    3.1543 O   0  0  0  0  0  0  0  0  0  0  0  0
    3.9192    4.3941    3.9139 C   0  0  0  0  0  0  0  0  0  0  0  0
    3.4475    5.4630    3.0743 O   0  0  0  0  0  0  0  0  0  0  0  0
    4.6401    5.0456    5.1039 C   0  0  0  0  0  0  0  0  0  0  0  0
    6.0588    5.0900    4.8266 O   0  0  0  0  0  0  0  0  0  0  0  0
    4.4587    4.4798    6.4277 N   0  0  0  0  0  0  0  0  0  0  0  0
    5.1543    4.7853    7.6226 C   0  0  0  0  0  0  0  0  0  0  0  0
    6.2140    5.6207    7.6952 N   0  0  0  0  0  0  0  0  0  0  0  0
    2.3534    1.1671    6.5981 H   0  0  0  0  0  0  0  0  0  0  0  0
    3.2935    2.2782    2.9014 H   0  0  0  0  0  0  0  0  0  0  0  0
    2.8276    6.0172    3.5739 H   0  0  0  0  0  0  0  0  0  0  0  0
    6.4081    4.1861    4.7832 H   0  0  0  0  0  0  0  0  0  0  0  0
    6.9651    5.9347    8.9345 C   0  0  0  0  0  0  0  0  0  0  0  0
    6.3705    7.1240    9.6688 C   0  0  0  0  0  0  0  0  0  0  0  0
    5.7967    6.6860   11.0200 C   0  0  0  0  0  0  0  0  0  0  0  0
    4.5319    7.5057   11.2830 C   0  0  0  0  0  0  0  0  0  0  0  0
    3.5563    7.3496   10.1230 C   0  0  0  0  0  0  0  0  0  0  0  0
    2.3916    6.4461   10.5421 C   0  0  0  0  0  0  0  0  0  0  0  0
    1.0814    7.1299   10.1876 C   0  0  0  0  0  0  0  0  0  0  0  0
    0.2223    7.2261   11.4356 C   0  0  0  0  0  0  0  0  0  0  0  0
 21 22  1  0  0  0
 22 23  1  0  0  0
 23 24  1  0  0  0
 24 25  1  0  0  0
 25 26  1  0  0  0
  1  2  1  0  0  0
  2  3  1  0  0  0
  3  4  1  0  0  0
  4  5  1  0  0  0
  2  6  1  0  0  0
  6  7  1  0  0  0
  6  8  1  0  0  0
  8  9  1  0  0  0
  8 10  1  0  0  0
 10 11  1  0  0  0
  3 12  1  0  0  0
 10 12  1  0  0  0
  5 13  1  0  0  0
 12 13  1  0  0  0
 13 14  2  0  0  0
 14 19  1  0  0  0
 19 20  1  0  0  0
 20 21  1  0  0  0
  1 15  1  0  0  0
  7 16  1  0  0  0
  9 17  1  0  0  0
 11 18  1  0  0  0
M  END
> <minimizedAffinity>
-7.68728

$$$$
2WC4_AMF_A_1446


 26 27  0  0  0  0  0  0  0  0999 V2000
    6.8643    5.0297    2.4380 O   0  0  0  0  0  0  0  0  0  0  0  0
    6.0343    4.2788    3.3424 C   0  0  0  0  0  0  0  0  0  0  0  0
    6.1530    4.9221    4.7307 C   0  0  0  0  0  0  0  0  0  0  0  0
    5.8760    6.4344    4.7950 C   0  0  0  0  0  0  0  0  0  0  0  0
    5.2423    6.7873    6.4191 S   0  0  0  0  0  0  0  0  0  0  0  0
    6.5031    2.8357    3.4733 C   0  0  0  0  0  0  0  0  0  0  0  0
    6.4707    2.1494    2.2354 O   0  0  0  0  0  0  0  0  0  0  0  0
    5.5202    2.0391    4.3321 C   0  0  0  0  0  0  0  0  0  0  0  0
    6.1483    0.8180    4.7617 O   0  0  0  0  0  0  0  0  0  0  0  0
    5.0717    2.7811    5.6003 C   0  0  0  0  0  0  0  0  0  0  0  0
    3.6818    2.4749    5.8569 O   0  0  0  0  0  0  0  0  0  0  0  0
    5.2332    4.2217    5.6629 N   0  0  0  0  0  0  0  0  0  0  0  0
    4.7310    5.1264    6.6295 C   0  0  0  0  0  0  0  0  0  0  0  0
    3.8992    4.7811    7.6370 N   0  0  0  0  0  0  0  0  0  0  0  0
    6.5370    5.9410    2.3797 H   0  0  0  0  0  0  0  0  0  0  0  0
    5.5588    2.1196    1.9060 H   0  0  0  0  0  0  0  0  0  0  0  0
    6.9187    1.0272    5.3128 H   0  0  0  0  0  0  0  0  0  0  0  0
    3.1337    2.8384    5.1439 H   0  0  0  0  0  0  0  0  0  0  0  0
    3.3490    5.7199    8.6442 C   0  0  0  0  0  0  0  0  0  0  0  0
    2.7756    4.9871    9.8448 C   0  0  0  0  0  0  0  0  0  0  0  0
    3.6283    5.2510   11.0898 C   0  0  0  0  0  0  0  0  0  0  0  0
    2.9018    4.6503   12.2948 C   0  0  0  0  0  0  0  0  0  0  0  0
    2.9789    5.6037   13.4810 C   0  0  0  0  0  0  0  0  0  0  0  0
    2.0507    6.8003   13.2467 C   0  0  0  0  0  0  0  0  0  0  0  0
    0.6971    6.2932   12.7769 C   0  0  0  0  0  0  0  0  0  0  0  0
    0.2469    7.1210   11.5865 C   0  0  0  0  0  0  0  0  0  0  0  0
 21 22  1  0  0  0
 22 23  1  0  0  0
 23 24  1  0  0  0
 24 25  1  0  0  0
 25 26  1  0  0  0
  1  2  1  0  0  0
  2  3  1  0  0  0
  3  4  1  0  0  0
  4  5  1  0  0  0
  2  6  1  0  0  0
  6  7  1  0  0  0
  6  8  1  0  0  0
  8  9  1  0  0  0
  8 10  1  0  0  0
 10 11  1  0  0  0
  3 12  1  0  0  0
 10 12  1  0  0  0
  5 13  1  0  0  0
 12 13  1  0  0  0
 13 14  2  0  0  0
 14 19  1  0  0  0
 19 20  1  0  0  0
 20 21  1  0  0  0
  1 15  1  0  0  0
  7 16  1  0  0  0
  9 17  1  0  0  0
 11 18  1  0  0  0
M  END
> <minimizedAffinity>
-7.52604

$$$$
2WC4_AMF_A_1446


 26 27  0  0  0  0  0  0  0  0999 V2000
    8.6924   11.1066    8.6237 O   0  0  0  0  0  0  0  0  0  0  0  0
    7.7031   10.4253    9.4162 C   0  0  0  0  0  0  0  0  0  0  0  0
    6.6640    9.8290    8.4571 C   0  0  0  0  0  0  0  0  0  0  0  0
    7.2229    8.9468    7.3269 C   0  0  0  0  0  0  0  0  0  0  0  0
    5.9689    7.7534    6.9183 S   0  0  0  0  0  0  0  0  0  0  0  0
    6.9642   11.3823   10.3423 C   0  0  0  0  0  0  0  0  0  0  0  0
    7.8370   12.0233   11.2543 O   0  0  0  0  0  0  0  0  0  0  0  0
    6.0218   10.6032   11.2605 C   0  0  0  0  0  0  0  0  0  0  0  0
    5.0714   11.5118   11.8447 O   0  0  0  0  0  0  0  0  0  0  0  0
    5.2135    9.5181   10.5329 C   0  0  0  0  0  0  0  0  0  0  0  0
    5.0678    8.3754   11.4072 O   0  0  0  0  0  0  0  0  0  0  0  0
    5.6819    9.0414    9.2450 N   0  0  0  0  0  0  0  0  0  0  0  0
    5.2190    7.9369    8.4894 C   0  0  0  0  0  0  0  0  0  0  0  0
    4.2906    7.0544    8.9201 N   0  0  0  0  0  0  0  0  0  0  0  0
    9.1413   10.4679    8.0480 H   0  0  0  0  0  0  0  0  0  0  0  0
    8.2608   11.3578   11.8185 H   0  0  0  0  0  0  0  0  0  0  0  0
    4.5345   11.9131   11.1436 H   0  0  0  0  0  0  0  0  0  0  0  0
    5.9379    7.9779   11.5676 H   0  0  0  0  0  0  0  0  0  0  0  0
    3.8107    5.8821    8.1495 C   0  0  0  0  0  0  0  0  0  0  0  0
    2.3672    5.5427    8.4787 C   0  0  0  0  0  0  0  0  0  0  0  0
    2.0522    5.9004    9.9345 C   0  0  0  0  0  0  0  0  0  0  0  0
    0.8555    6.8536    9.9375 C   0  0  0  0  0  0  0  0  0  0  0  0
    0.5717    7.3330   11.3558 C   0  0  0  0  0  0  0  0  0  0  0  0
    0.6350    6.1489   12.3265 C   0  0  0  0  0  0  0  0  0  0  0  0
    1.3161    6.5956   13.6097 C   0  0  0  0  0  0  0  0  0  0  0  0
    2.2219    5.4804   14.1007 C   0  0  0  0  0  0  0  0  0  0  0  0
 21 22  1  0  0  0
 22 23  1  0  0  0
 23 24  1  0  0  0
 24 25  1  0  0  0
 25 26  1  0  0  0
  1  2  1  0  0  0
  2  3  1  0  0  0
  3  4  1  0  0  0
  4  5  1  0  0  0
  2  6  1  0  0  0
  6  7  1  0  0  0
  6  8  1  0  0  0
  8  9  1  0  0  0
  8 10  1  0  0  0
 10 11  1  0  0  0
  3 12  1  0  0  0
 10 12  1  0  0  0
  5 13  1  0  0  0
 12 13  1  0  0  0
 13 14  2  0  0  0
 14 19  1  0  0  0
 19 20  1  0  0  0
 20 21  1  0  0  0
  1 15  1  0  0  0
  7 16  1  0  0  0
  9 17  1  0  0  0
 11 18  1  0  0  0
M  END
> <minimizedAffinity>
-7.47719

$$$$
2WC4_AMF_A_1446


 26 27  0  0  0  0  0  0  0  0999 V2000
    8.1165    3.3495    4.0297 O   0  0  0  0  0  0  0  0  0  0  0  0
    6.8192    3.6441    4.5783 C   0  0  0  0  0  0  0  0  0  0  0  0
    7.0289    4.3174    5.9414 C   0  0  0  0  0  0  0  0  0  0  0  0
    7.9630    5.5403    5.9487 C   0  0  0  0  0  0  0  0  0  0  0  0
    7.4302    6.6046    7.2705 S   0  0  0  0  0  0  0  0  0  0  0  0
    6.0079    2.3783    4.8214 C   0  0  0  0  0  0  0  0  0  0  0  0
    5.7831    1.6508    3.6279 O   0  0  0  0  0  0  0  0  0  0  0  0
    4.5927    2.7393    5.2740 C   0  0  0  0  0  0  0  0  0  0  0  0
    3.9720    1.5801    5.8580 O   0  0  0  0  0  0  0  0  0  0  0  0
    4.5517    3.8501    6.3344 C   0  0  0  0  0  0  0  0  0  0  0  0
    3.3950    4.6848    6.0959 O   0  0  0  0  0  0  0  0  0  0  0  0
    5.7063    4.7156    6.4870 N   0  0  0  0  0  0  0  0  0  0  0  0
    5.8269    5.9024    7.2499 C   0  0  0  0  0  0  0  0  0  0  0  0
    4.8041    6.4939    7.9058 N   0  0  0  0  0  0  0  0  0  0  0  0
    8.6033    4.1766    3.8885 H   0  0  0  0  0  0  0  0  0  0  0  0
    5.2738    2.1960    3.0080 H   0  0  0  0  0  0  0  0  0  0  0  0
    4.4717    1.3068    6.6432 H   0  0  0  0  0  0  0  0  0  0  0  0
    3.4987    5.1468    5.2493 H   0  0  0  0  0  0  0  0  0  0  0  0
    4.9101    7.7469    8.6916 C   0  0  0  0  0  0  0  0  0  0  0  0
    3.8958    7.7921    9.8214 C   0  0  0  0  0  0  0  0  0  0  0  0
    3.3158    6.3972   10.0757 C   0  0  0  0  0  0  0  0  0  0  0  0
    1.8259    6.5554   10.3854 C   0  0  0  0  0  0  0  0  0  0  0  0
    1.4675    5.7761   11.6448 C   0  0  0  0  0  0  0  0  0  0  0  0
    0.7686    6.7014   12.6467 C   0  0  0  0  0  0  0  0  0  0  0  0
    1.5442    6.6929   13.9537 C   0  0  0  0  0  0  0  0  0  0  0  0
    1.7459    5.2552   14.3977 C   0  0  0  0  0  0  0  0  0  0  0  0
 21 22  1  0  0  0
 22 23  1  0  0  0
 23 24  1  0  0  0
 24 25  1  0  0  0
 25 26  1  0  0  0
  1  2  1  0  0  0
  2  3  1  0  0  0
  3  4  1  0  0  0
  4  5  1  0  0  0
  2  6  1  0  0  0
  6  7  1  0  0  0
  6  8  1  0  0  0
  8  9  1  0  0  0
  8 10  1  0  0  0
 10 11  1  0  0  0
  3 12  1  0  0  0
 10 12  1  0  0  0
  5 13  1  0  0  0
 12 13  1  0  0  0
 13 14  2  0  0  0
 14 19  1  0  0  0
 19 20  1  0  0  0
 20 21  1  0  0  0
  1 15  1  0  0  0
  7 16  1  0  0  0
  9 17  1  0  0  0
 11 18  1  0  0  0
M  END
> <minimizedAffinity>
-7.37272

$$$$
2WC4_AMF_A_1446


 26 27  0  0  0  0  0  0  0  0999 V2000
    5.3828    8.5032   11.7536 O   0  0  0  0  0  0  0  0  0  0  0  0
    5.0129    7.2343   11.1846 C   0  0  0  0  0  0  0  0  0  0  0  0
    5.4056    7.2538    9.7012 C   0  0  0  0  0  0  0  0  0  0  0  0
    6.8665    7.6313    9.3991 C   0  0  0  0  0  0  0  0  0  0  0  0
    7.3221    6.8135    7.8867 S   0  0  0  0  0  0  0  0  0  0  0  0
    3.5089    7.0030   11.2492 C   0  0  0  0  0  0  0  0  0  0  0  0
    3.0256    7.0023   12.5799 O   0  0  0  0  0  0  0  0  0  0  0  0
    3.1720    5.5934   10.7619 C   0  0  0  0  0  0  0  0  0  0  0  0
    1.7660    5.5179   10.4659 O   0  0  0  0  0  0  0  0  0  0  0  0
    3.9203    5.1909    9.4820 C   0  0  0  0  0  0  0  0  0  0  0  0
    4.2566    3.7863    9.5564 O   0  0  0  0  0  0  0  0  0  0  0  0
    5.1188    5.9207    9.1126 N   0  0  0  0  0  0  0  0  0  0  0  0
    6.0627    5.6168    8.1018 C   0  0  0  0  0  0  0  0  0  0  0  0
    6.0440    4.4904    7.3555 N   0  0  0  0  0  0  0  0  0  0  0  0
    6.3444    8.6158   11.6952 H   0  0  0  0  0  0  0  0  0  0  0  0
    3.4422    6.2796   13.0749 H   0  0  0  0  0  0  0  0  0  0  0  0
    1.5528    6.1361    9.7494 H   0  0  0  0  0  0  0  0  0  0  0  0
    4.8912    3.6435   10.2760 H   0  0  0  0  0  0  0  0  0  0  0  0
    7.0363    4.1485    6.3081 C   0  0  0  0  0  0  0  0  0  0  0  0
    6.5674    2.9919    5.4423 C   0  0  0  0  0  0  0  0  0  0  0  0
    5.1321    2.5990    5.8060 C   0  0  0  0  0  0  0  0  0  0  0  0
    4.2710    2.7437    4.5497 C   0  0  0  0  0  0  0  0  0  0  0  0
    2.9062    3.3154    4.9136 C   0  0  0  0  0  0  0  0  0  0  0  0
    2.7595    4.7232    4.3264 C   0  0  0  0  0  0  0  0  0  0  0  0
    3.2000    5.7419    5.3648 C   0  0  0  0  0  0  0  0  0  0  0  0
    4.3962    6.5071    4.8278 C   0  0  0  0  0  0  0  0  0  0  0  0
 21 22  1  0  0  0
 22 23  1  0  0  0
 23 24  1  0  0  0
 24 25  1  0  0  0
 25 26  1  0  0  0
  1  2  1  0  0  0
  2  3  1  0  0  0
  3  4  1  0  0  0
  4  5  1  0  0  0
  2  6  1  0  0  0
  6  7  1  0  0  0
  6  8  1  0  0  0
  8  9  1  0  0  0
  8 10  1  0  0  0
 10 11  1  0  0  0
  3 12  1  0  0  0
 10 12  1  0  0  0
  5 13  1  0  0  0
 12 13  1  0  0  0
 13 14  2  0  0  0
 14 19  1  0  0  0
 19 20  1  0  0  0
 20 21  1  0  0  0
  1 15  1  0  0  0
  7 16  1  0  0  0
  9 17  1  0  0  0
 11 18  1  0  0  0
M  END
> <minimizedAffinity>
-7.21384

$$$$
