4LLP_4ZE_A_801


 12 12  0  0  0  0  0  0  0  0999 V2000
    4.2774   12.4292   41.9191 C   0  0  0  0  0  0  0  0  0  0  0  0
    3.7706   13.0703   43.1891 C   0  0  0  0  0  0  0  0  0  0  0  0
    4.0571   12.5143   44.4331 C   0  0  0  0  0  0  0  0  0  0  0  0
    3.5833   13.1117   45.5995 C   0  0  0  0  0  0  0  0  0  0  0  0
    3.8511   12.5834   46.8058 N   0  0  0  0  0  0  0  0  0  0  0  0
    2.8151   14.2744   45.5316 C   0  0  0  0  0  0  0  0  0  0  0  0
    2.5280   14.8245   44.2890 C   0  0  0  0  0  0  0  0  0  0  0  0
    3.0033   14.2269   43.1250 C   0  0  0  0  0  0  0  0  0  0  0  0
    2.7199   14.7670   41.9438 O   0  0  0  0  0  0  0  0  0  0  0  0
    4.3914   11.7633   46.8751 H   0  0  0  0  0  0  0  0  0  0  0  0
    3.5070   13.0164   47.6203 H   0  0  0  0  0  0  0  0  0  0  0  0
    3.0378   14.3680   41.1579 H   0  0  0  0  0  0  0  0  0  0  0  0
  1  2  1  0  0  0
  2  3  2  0  0  0
  2  8  1  0  0  0
  3  4  1  0  0  0
  9  8  1  0  0  0
  8  7  2  0  0  0
  4  5  1  0  0  0
  4  6  2  0  0  0
  7  6  1  0  0  0
  5 10  1  0  0  0
  5 11  1  0  0  0
  9 12  1  0  0  0
M  END
> <minimizedAffinity>
-5.62979

$$$$
4LLP_4ZE_A_801


 12 12  0  0  0  0  0  0  0  0999 V2000
    3.1474   14.3351   41.9060 C   0  0  0  0  0  0  0  0  0  0  0  0
    3.3972   13.6989   43.2527 C   0  0  0  0  0  0  0  0  0  0  0  0
    4.1695   12.5457   43.3652 C   0  0  0  0  0  0  0  0  0  0  0  0
    4.3929   11.9644   44.6119 C   0  0  0  0  0  0  0  0  0  0  0  0
    5.1345   10.8502   44.7332 N   0  0  0  0  0  0  0  0  0  0  0  0
    3.8429   12.5331   45.7611 C   0  0  0  0  0  0  0  0  0  0  0  0
    3.0701   13.6812   45.6451 C   0  0  0  0  0  0  0  0  0  0  0  0
    2.8491   14.2611   44.3990 C   0  0  0  0  0  0  0  0  0  0  0  0
    2.1075   15.3604   44.3058 O   0  0  0  0  0  0  0  0  0  0  0  0
    5.5313   10.4336   43.9343 H   0  0  0  0  0  0  0  0  0  0  0  0
    5.2809   10.4506   45.6210 H   0  0  0  0  0  0  0  0  0  0  0  0
    1.9563   15.7540   43.4690 H   0  0  0  0  0  0  0  0  0  0  0  0
  1  2  1  0  0  0
  2  3  2  0  0  0
  2  8  1  0  0  0
  3  4  1  0  0  0
  9  8  1  0  0  0
  8  7  2  0  0  0
  4  5  1  0  0  0
  4  6  2  0  0  0
  7  6  1  0  0  0
  5 10  1  0  0  0
  5 11  1  0  0  0
  9 12  1  0  0  0
M  END
> <minimizedAffinity>
-5.48470

$$$$
4LLP_4ZE_A_801


 12 12  0  0  0  0  0  0  0  0999 V2000
    4.0397   12.9920   41.4595 C   0  0  0  0  0  0  0  0  0  0  0  0
    3.7212   13.2101   42.9196 C   0  0  0  0  0  0  0  0  0  0  0  0
    3.0115   14.3336   43.3354 C   0  0  0  0  0  0  0  0  0  0  0  0
    2.7242   14.5276   44.6851 C   0  0  0  0  0  0  0  0  0  0  0  0
    2.0421   15.6090   45.0991 N   0  0  0  0  0  0  0  0  0  0  0  0
    3.1465   13.5964   45.6344 C   0  0  0  0  0  0  0  0  0  0  0  0
    3.8574   12.4788   45.2168 C   0  0  0  0  0  0  0  0  0  0  0  0
    4.1424   12.2861   43.8679 C   0  0  0  0  0  0  0  0  0  0  0  0
    4.8231   11.2104   43.4852 O   0  0  0  0  0  0  0  0  0  0  0  0
    1.7353   16.2777   44.4449 H   0  0  0  0  0  0  0  0  0  0  0  0
    1.8491   15.7325   46.0566 H   0  0  0  0  0  0  0  0  0  0  0  0
    5.0171   11.0768   42.5783 H   0  0  0  0  0  0  0  0  0  0  0  0
  1  2  1  0  0  0
  2  3  2  0  0  0
  2  8  1  0  0  0
  3  4  1  0  0  0
  9  8  1  0  0  0
  8  7  2  0  0  0
  4  5  1  0  0  0
  4  6  2  0  0  0
  7  6  1  0  0  0
  5 10  1  0  0  0
  5 11  1  0  0  0
  9 12  1  0  0  0
M  END
> <minimizedAffinity>
-5.44693

$$$$
4LLP_4ZE_A_801


 12 12  0  0  0  0  0  0  0  0999 V2000
    3.2633   13.4538   45.9233 C   0  0  0  0  0  0  0  0  0  0  0  0
    3.4962   13.3536   44.4345 C   0  0  0  0  0  0  0  0  0  0  0  0
    4.2783   12.3323   43.9014 C   0  0  0  0  0  0  0  0  0  0  0  0
    4.4896   12.2491   42.5265 C   0  0  0  0  0  0  0  0  0  0  0  0
    5.2443   11.2696   42.0002 N   0  0  0  0  0  0  0  0  0  0  0  0
    3.9189   13.1907   41.6696 C   0  0  0  0  0  0  0  0  0  0  0  0
    3.1423   14.2102   42.2048 C   0  0  0  0  0  0  0  0  0  0  0  0
    2.9315   14.2909   43.5784 C   0  0  0  0  0  0  0  0  0  0  0  0
    2.1848   15.2727   44.0740 O   0  0  0  0  0  0  0  0  0  0  0  0
    5.6558   10.5955   42.5879 H   0  0  0  0  0  0  0  0  0  0  0  0
    5.3857   11.2262   41.0268 H   0  0  0  0  0  0  0  0  0  0  0  0
    2.0403   15.3308   44.9980 H   0  0  0  0  0  0  0  0  0  0  0  0
  1  2  1  0  0  0
  2  3  2  0  0  0
  2  8  1  0  0  0
  3  4  1  0  0  0
  9  8  1  0  0  0
  8  7  2  0  0  0
  4  5  1  0  0  0
  4  6  2  0  0  0
  7  6  1  0  0  0
  5 10  1  0  0  0
  5 11  1  0  0  0
  9 12  1  0  0  0
M  END
> <minimizedAffinity>
-5.43755

$$$$
4LLP_4ZE_A_801


 12 12  0  0  0  0  0  0  0  0999 V2000
    2.2419   14.8945   44.8146 C   0  0  0  0  0  0  0  0  0  0  0  0
    3.1515   13.7064   45.0191 C   0  0  0  0  0  0  0  0  0  0  0  0
    3.4409   13.2408   46.2990 C   0  0  0  0  0  0  0  0  0  0  0  0
    4.2831   12.1450   46.4781 C   0  0  0  0  0  0  0  0  0  0  0  0
    4.5718   11.6877   47.7083 N   0  0  0  0  0  0  0  0  0  0  0  0
    4.8459   11.5035   45.3743 C   0  0  0  0  0  0  0  0  0  0  0  0
    4.5582   11.9727   44.0992 C   0  0  0  0  0  0  0  0  0  0  0  0
    3.7157   13.0667   43.9223 C   0  0  0  0  0  0  0  0  0  0  0  0
    3.4500   13.5023   42.6948 O   0  0  0  0  0  0  0  0  0  0  0  0
    4.1847   12.1266   48.5000 H   0  0  0  0  0  0  0  0  0  0  0  0
    5.1705   10.9139   47.8179 H   0  0  0  0  0  0  0  0  0  0  0  0
    2.8835   14.2383   42.5713 H   0  0  0  0  0  0  0  0  0  0  0  0
  1  2  1  0  0  0
  2  3  2  0  0  0
  2  8  1  0  0  0
  3  4  1  0  0  0
  9  8  1  0  0  0
  8  7  2  0  0  0
  4  5  1  0  0  0
  4  6  2  0  0  0
  7  6  1  0  0  0
  5 10  1  0  0  0
  5 11  1  0  0  0
  9 12  1  0  0  0
M  END
> <minimizedAffinity>
-5.39474

$$$$
4LLP_4ZE_A_801


 12 12  0  0  0  0  0  0  0  0999 V2000
    4.8953   11.5404   45.6758 C   0  0  0  0  0  0  0  0  0  0  0  0
    4.2144   12.5111   44.7404 C   0  0  0  0  0  0  0  0  0  0  0  0
    3.3834   13.5138   45.2332 C   0  0  0  0  0  0  0  0  0  0  0  0
    2.7576   14.4036   44.3623 C   0  0  0  0  0  0  0  0  0  0  0  0
    1.9515   15.3740   44.8255 N   0  0  0  0  0  0  0  0  0  0  0  0
    2.9576   14.2974   42.9855 C   0  0  0  0  0  0  0  0  0  0  0  0
    3.7841   13.2939   42.4970 C   0  0  0  0  0  0  0  0  0  0  0  0
    4.4094   12.4067   43.3687 C   0  0  0  0  0  0  0  0  0  0  0  0
    5.1981   11.4525   42.8844 O   0  0  0  0  0  0  0  0  0  0  0  0
    1.7974   15.4657   45.7935 H   0  0  0  0  0  0  0  0  0  0  0  0
    1.5150   15.9933   44.1967 H   0  0  0  0  0  0  0  0  0  0  0  0
    5.6209   10.8532   43.4676 H   0  0  0  0  0  0  0  0  0  0  0  0
  1  2  1  0  0  0
  2  3  2  0  0  0
  2  8  1  0  0  0
  3  4  1  0  0  0
  9  8  1  0  0  0
  8  7  2  0  0  0
  4  5  1  0  0  0
  4  6  2  0  0  0
  7  6  1  0  0  0
  5 10  1  0  0  0
  5 11  1  0  0  0
  9 12  1  0  0  0
M  END
> <minimizedAffinity>
-5.28551

$$$$
4LLP_4ZE_A_801


 12 12  0  0  0  0  0  0  0  0999 V2000
    2.4591   14.8700   44.5691 C   0  0  0  0  0  0  0  0  0  0  0  0
    3.2128   13.8597   43.7371 C   0  0  0  0  0  0  0  0  0  0  0  0
    3.9259   12.8273   44.3407 C   0  0  0  0  0  0  0  0  0  0  0  0
    4.6202   11.9010   43.5649 C   0  0  0  0  0  0  0  0  0  0  0  0
    5.3140   10.9016   44.1357 N   0  0  0  0  0  0  0  0  0  0  0  0
    4.6078   12.0001   42.1732 C   0  0  0  0  0  0  0  0  0  0  0  0
    3.8986   13.0332   41.5744 C   0  0  0  0  0  0  0  0  0  0  0  0
    3.2047   13.9568   42.3511 C   0  0  0  0  0  0  0  0  0  0  0  0
    2.5301   14.9390   41.7617 O   0  0  0  0  0  0  0  0  0  0  0  0
    5.3352   10.8144   45.1161 H   0  0  0  0  0  0  0  0  0  0  0  0
    5.8011   10.2567   43.5735 H   0  0  0  0  0  0  0  0  0  0  0  0
    2.0617   15.5629   42.2807 H   0  0  0  0  0  0  0  0  0  0  0  0
  1  2  1  0  0  0
  2  3  2  0  0  0
  2  8  1  0  0  0
  3  4  1  0  0  0
  9  8  1  0  0  0
  8  7  2  0  0  0
  4  5  1  0  0  0
  4  6  2  0  0  0
  7  6  1  0  0  0
  5 10  1  0  0  0
  5 11  1  0  0  0
  9 12  1  0  0  0
M  END
> <minimizedAffinity>
-5.27599

$$$$
4LLP_4ZE_A_801


 12 12  0  0  0  0  0  0  0  0999 V2000
    4.4972   12.8952   42.5031 C   0  0  0  0  0  0  0  0  0  0  0  0
    4.3017   12.6637   43.9826 C   0  0  0  0  0  0  0  0  0  0  0  0
    5.0105   11.6677   44.6492 C   0  0  0  0  0  0  0  0  0  0  0  0
    4.8220   11.4599   46.0141 C   0  0  0  0  0  0  0  0  0  0  0  0
    5.4984   10.5003   46.6682 N   0  0  0  0  0  0  0  0  0  0  0  0
    3.9187   12.2490   46.7269 C   0  0  0  0  0  0  0  0  0  0  0  0
    3.2106   13.2393   46.0584 C   0  0  0  0  0  0  0  0  0  0  0  0
    3.4013   13.4461   44.6950 C   0  0  0  0  0  0  0  0  0  0  0  0
    2.7159   14.3988   44.0707 O   0  0  0  0  0  0  0  0  0  0  0  0
    6.1403    9.9329   46.1832 H   0  0  0  0  0  0  0  0  0  0  0  0
    5.3519   10.3648   47.6323 H   0  0  0  0  0  0  0  0  0  0  0  0
    2.8412   14.5413   43.1531 H   0  0  0  0  0  0  0  0  0  0  0  0
  1  2  1  0  0  0
  2  3  2  0  0  0
  2  8  1  0  0  0
  3  4  1  0  0  0
  9  8  1  0  0  0
  8  7  2  0  0  0
  4  5  1  0  0  0
  4  6  2  0  0  0
  7  6  1  0  0  0
  5 10  1  0  0  0
  5 11  1  0  0  0
  9 12  1  0  0  0
M  END
> <minimizedAffinity>
-5.21081

$$$$
4LLP_4ZE_A_801


 12 12  0  0  0  0  0  0  0  0999 V2000
    4.3049   12.6904   40.5637 C   0  0  0  0  0  0  0  0  0  0  0  0
    4.0151   13.0429   42.0033 C   0  0  0  0  0  0  0  0  0  0  0  0
    4.5971   12.3253   43.0450 C   0  0  0  0  0  0  0  0  0  0  0  0
    4.3221   12.6563   44.3705 C   0  0  0  0  0  0  0  0  0  0  0  0
    4.8757   11.9698   45.3845 N   0  0  0  0  0  0  0  0  0  0  0  0
    3.4588   13.7116   44.6667 C   0  0  0  0  0  0  0  0  0  0  0  0
    2.8771   14.4230   43.6253 C   0  0  0  0  0  0  0  0  0  0  0  0
    3.1540   14.0915   42.3020 C   0  0  0  0  0  0  0  0  0  0  0  0
    2.5894   14.7834   41.3172 O   0  0  0  0  0  0  0  0  0  0  0  0
    5.4876   11.2218   45.1965 H   0  0  0  0  0  0  0  0  0  0  0  0
    4.6694   12.2149   46.3155 H   0  0  0  0  0  0  0  0  0  0  0  0
    2.7730   14.5636   40.4251 H   0  0  0  0  0  0  0  0  0  0  0  0
  1  2  1  0  0  0
  2  3  2  0  0  0
  2  8  1  0  0  0
  3  4  1  0  0  0
  9  8  1  0  0  0
  8  7  2  0  0  0
  4  5  1  0  0  0
  4  6  2  0  0  0
  7  6  1  0  0  0
  5 10  1  0  0  0
  5 11  1  0  0  0
  9 12  1  0  0  0
M  END
> <minimizedAffinity>
-5.18232

$$$$
4LLP_4ZE_A_801


 12 12  0  0  0  0  0  0  0  0999 V2000
    2.4419   15.4037   45.4002 C   0  0  0  0  0  0  0  0  0  0  0  0
    3.0798   14.2729   44.6287 C   0  0  0  0  0  0  0  0  0  0  0  0
    3.1160   14.2895   43.2369 C   0  0  0  0  0  0  0  0  0  0  0  0
    3.7048   13.2405   42.5334 C   0  0  0  0  0  0  0  0  0  0  0  0
    3.7439   13.2439   41.1900 N   0  0  0  0  0  0  0  0  0  0  0  0
    4.2639   12.1613   43.2184 C   0  0  0  0  0  0  0  0  0  0  0  0
    4.2230   12.1460   44.6066 C   0  0  0  0  0  0  0  0  0  0  0  0
    3.6354   13.1954   45.3076 C   0  0  0  0  0  0  0  0  0  0  0  0
    3.6054   13.1654   46.6363 O   0  0  0  0  0  0  0  0  0  0  0  0
    3.3549   13.9962   40.6881 H   0  0  0  0  0  0  0  0  0  0  0  0
    4.1615   12.4940   40.7078 H   0  0  0  0  0  0  0  0  0  0  0  0
    3.2109   13.8697   47.1120 H   0  0  0  0  0  0  0  0  0  0  0  0
  1  2  1  0  0  0
  2  3  2  0  0  0
  2  8  1  0  0  0
  3  4  1  0  0  0
  9  8  1  0  0  0
  8  7  2  0  0  0
  4  5  1  0  0  0
  4  6  2  0  0  0
  7  6  1  0  0  0
  5 10  1  0  0  0
  5 11  1  0  0  0
  9 12  1  0  0  0
M  END
> <minimizedAffinity>
-5.15518

$$$$
