4MUV_PCG_A_401


 28 31  0  0  0  0  0  0  0  0999 V2000
   13.0008   -0.9396   88.7918 P   0  0  0  0  0  0  0  0  0  0  0  0
   11.6948   -0.3639   88.2847 O   0  0  0  0  0  0  0  0  0  0  0  0
   12.9573   -1.6258   90.1106 O   0  0  0  0  0  0  0  0  0  0  0  0
   14.0411    0.2012   88.8578 O   0  0  0  0  0  0  0  0  0  0  0  0
   15.3623   -0.0915   88.9384 C   0  0  0  0  0  0  0  0  0  0  0  0
   15.7143   -1.0316   87.7717 C   0  0  0  0  0  0  0  0  0  0  0  0
   17.1149   -1.4697   87.6110 O   0  0  0  0  0  0  0  0  0  0  0  0
   14.9701   -2.1862   87.8667 C   0  0  0  0  0  0  0  0  0  0  0  0
   13.5385   -1.9476   87.6877 O   0  0  0  0  0  0  0  0  0  0  0  0
   15.6334   -3.0852   86.7449 C   0  0  0  0  0  0  0  0  0  0  0  0
   14.9526   -2.8653   85.5095 O   0  0  0  0  0  0  0  0  0  0  0  0
   16.9696   -2.6536   86.6840 C   0  0  0  0  0  0  0  0  0  0  0  0
   11.3398    0.2578   88.9391 H   0  0  0  0  0  0  0  0  0  0  0  0
   14.9810   -1.9213   85.2882 H   0  0  0  0  0  0  0  0  0  0  0  0
   17.9774   -3.6111   87.0300 N   0  0  0  0  0  0  0  0  0  0  0  0
   18.9373   -4.1440   86.2036 C   0  0  0  0  0  0  0  0  0  0  0  0
   19.6459   -5.0912   86.8209 N   0  0  0  0  0  0  0  0  0  0  0  0
   19.1226   -5.1635   88.0891 C   0  0  0  0  0  0  0  0  0  0  0  0
   19.4611   -5.9947   89.2112 C   0  0  0  0  0  0  0  0  0  0  0  0
   20.3703   -6.8596   89.2352 O   0  0  0  0  0  0  0  0  0  0  0  0
   18.6960   -5.7736   90.3308 N   0  0  0  0  0  0  0  0  0  0  0  0
   17.6437   -4.8730   90.3894 C   0  0  0  0  0  0  0  0  0  0  0  0
   16.9487   -4.7555   91.5357 N   0  0  0  0  0  0  0  0  0  0  0  0
   17.2901   -4.0622   89.3416 N   0  0  0  0  0  0  0  0  0  0  0  0
   18.0843   -4.2685   88.1938 C   0  0  0  0  0  0  0  0  0  0  0  0
   18.9086   -6.2875   91.1432 H   0  0  0  0  0  0  0  0  0  0  0  0
   17.1748   -5.3215   92.3088 H   0  0  0  0  0  0  0  0  0  0  0  0
   16.2140   -4.1034   91.6012 H   0  0  0  0  0  0  0  0  0  0  0  0
  1  2  1  0  0  0
  1  3  2  0  0  0
  1  4  1  0  0  0
  1  9  1  0  0  0
  4  5  1  0  0  0
  5  6  1  0  0  0
  6  7  1  0  0  0
  6  8  1  0  0  0
  7 12  1  0  0  0
  8  9  1  0  0  0
  8 10  1  0  0  0
 10 11  1  0  0  0
 10 12  1  0  0  0
 12 15  1  0  0  0
 15 16  1  0  0  0
 15 25  1  0  0  0
 16 17  2  0  0  0
 17 18  1  0  0  0
 18 19  1  0  0  0
 18 25  2  0  0  0
 19 20  2  0  0  0
 19 21  1  0  0  0
 21 22  1  0  0  0
 22 23  1  0  0  0
 22 24  2  0  0  0
 24 25  1  0  0  0
  2 13  1  0  0  0
 11 14  1  0  0  0
 21 26  1  0  0  0
 23 27  1  0  0  0
 23 28  1  0  0  0
M  END
> <minimizedAffinity>
-12.51151

$$$$
4MUV_PCG_A_401


 28 31  0  0  0  0  0  0  0  0999 V2000
   12.8713   -0.8163   88.9416 P   0  0  0  0  0  0  0  0  0  0  0  0
   11.7518   -0.1823   88.1422 O   0  0  0  0  0  0  0  0  0  0  0  0
   12.5061   -1.3722   90.2718 O   0  0  0  0  0  0  0  0  0  0  0  0
   13.9884    0.2346   89.1305 O   0  0  0  0  0  0  0  0  0  0  0  0
   15.2333   -0.1590   89.4953 C   0  0  0  0  0  0  0  0  0  0  0  0
   15.7073   -1.2287   88.4952 C   0  0  0  0  0  0  0  0  0  0  0  0
   17.0615   -1.7954   88.6510 O   0  0  0  0  0  0  0  0  0  0  0  0
   14.8468   -2.3032   88.5241 C   0  0  0  0  0  0  0  0  0  0  0  0
   13.5078   -1.9630   88.0449 O   0  0  0  0  0  0  0  0  0  0  0  0
   15.6201   -3.3539   87.6272 C   0  0  0  0  0  0  0  0  0  0  0  0
   15.2155   -3.1923   86.2676 O   0  0  0  0  0  0  0  0  0  0  0  0
   16.9795   -3.0432   87.8035 C   0  0  0  0  0  0  0  0  0  0  0  0
   11.3416    0.5246   88.6646 H   0  0  0  0  0  0  0  0  0  0  0  0
   15.3806   -2.2784   85.9876 H   0  0  0  0  0  0  0  0  0  0  0  0
   17.8006   -4.0459   88.4139 N   0  0  0  0  0  0  0  0  0  0  0  0
   17.8570   -4.3770   89.7463 C   0  0  0  0  0  0  0  0  0  0  0  0
   18.8098   -5.2793   89.9882 N   0  0  0  0  0  0  0  0  0  0  0  0
   19.3803   -5.5373   88.7653 C   0  0  0  0  0  0  0  0  0  0  0  0
   20.4545   -6.4115   88.3829 C   0  0  0  0  0  0  0  0  0  0  0  0
   21.1033   -7.1578   89.1560 O   0  0  0  0  0  0  0  0  0  0  0  0
   20.7476   -6.3948   87.0406 N   0  0  0  0  0  0  0  0  0  0  0  0
   20.1181   -5.5757   86.1163 C   0  0  0  0  0  0  0  0  0  0  0  0
   20.5034   -5.6290   84.8281 N   0  0  0  0  0  0  0  0  0  0  0  0
   19.0894   -4.7290   86.4412 N   0  0  0  0  0  0  0  0  0  0  0  0
   18.7682   -4.7550   87.8148 C   0  0  0  0  0  0  0  0  0  0  0  0
   21.4495   -7.0034   86.7145 H   0  0  0  0  0  0  0  0  0  0  0  0
   21.2386   -6.2257   84.5585 H   0  0  0  0  0  0  0  0  0  0  0  0
   20.0501   -5.0713   84.1552 H   0  0  0  0  0  0  0  0  0  0  0  0
  1  2  1  0  0  0
  1  3  2  0  0  0
  1  4  1  0  0  0
  1  9  1  0  0  0
  4  5  1  0  0  0
  5  6  1  0  0  0
  6  7  1  0  0  0
  6  8  1  0  0  0
  7 12  1  0  0  0
  8  9  1  0  0  0
  8 10  1  0  0  0
 10 11  1  0  0  0
 10 12  1  0  0  0
 12 15  1  0  0  0
 15 16  1  0  0  0
 15 25  1  0  0  0
 16 17  2  0  0  0
 17 18  1  0  0  0
 18 19  1  0  0  0
 18 25  2  0  0  0
 19 20  2  0  0  0
 19 21  1  0  0  0
 21 22  1  0  0  0
 22 23  1  0  0  0
 22 24  2  0  0  0
 24 25  1  0  0  0
  2 13  1  0  0  0
 11 14  1  0  0  0
 21 26  1  0  0  0
 23 27  1  0  0  0
 23 28  1  0  0  0
M  END
> <minimizedAffinity>
-11.09366

$$$$
