4TLN_LNO_A_322


 14 13  0  0  0  0  0  0  0  0999 V2000
   54.6648   16.9895   -3.6036 N   0  0  0  0  0  0  0  0  0  0  0  0
   53.4854   17.9093   -3.4138 C   0  0  0  0  0  0  0  0  0  0  0  0
   54.3451   16.1026   -3.9928 H   0  0  0  0  0  0  0  0  0  0  0  0
   55.1146   16.8233   -2.7033 H   0  0  0  0  0  0  0  0  0  0  0  0
   52.8842   18.5577   -4.6601 C   0  0  0  0  0  0  0  0  0  0  0  0
   53.4400   18.7330   -5.7937 O   0  0  0  0  0  0  0  0  0  0  0  0
   51.6790   18.9767   -4.4398 N   0  0  0  0  0  0  0  0  0  0  0  0
   51.2648   19.5617   -5.6184 O   0  0  0  0  0  0  0  0  0  0  0  0
   51.1648   18.8948   -3.6043 H   0  0  0  0  0  0  0  0  0  0  0  0
   51.9747   19.5007   -6.2766 H   0  0  0  0  0  0  0  0  0  0  0  0
   54.2972   19.1649   -2.8119 C   0  0  0  0  0  0  0  0  0  0  0  0
   54.4274   19.0030   -1.3016 C   0  0  0  0  0  0  0  0  0  0  0  0
   55.2367   20.2832   -0.9114 C   0  0  0  0  0  0  0  0  0  0  0  0
   53.1586   18.7940   -0.4915 C   0  0  0  0  0  0  0  0  0  0  0  0
  1  2  1  0  0  0
  2  5  1  0  0  0
  2 11  1  0  0  0
  5  6  2  0  0  0
  5  7  1  0  0  0
 11 12  1  0  0  0
 12 13  1  0  0  0
 12 14  1  0  0  0
  7  8  1  0  0  0
  1  3  1  0  0  0
  1  4  1  0  0  0
  7  9  1  0  0  0
  8 10  1  0  0  0
M  END
> <minimizedAffinity>
-5.88628

$$$$
4TLN_LNO_A_322


 14 13  0  0  0  0  0  0  0  0999 V2000
   51.7791   19.0202   -2.4819 N   0  0  0  0  0  0  0  0  0  0  0  0
   53.2733   18.8358   -2.5598 C   0  0  0  0  0  0  0  0  0  0  0  0
   51.5205   19.8963   -2.9358 H   0  0  0  0  0  0  0  0  0  0  0  0
   51.4902   19.0458   -1.5040 H   0  0  0  0  0  0  0  0  0  0  0  0
   53.8683   18.4298   -3.9076 C   0  0  0  0  0  0  0  0  0  0  0  0
   54.9064   17.7214   -4.1205 O   0  0  0  0  0  0  0  0  0  0  0  0
   53.1948   18.9333   -4.8921 N   0  0  0  0  0  0  0  0  0  0  0  0
   53.8435   18.5228   -6.0381 O   0  0  0  0  0  0  0  0  0  0  0  0
   52.3870   19.4932   -4.8347 H   0  0  0  0  0  0  0  0  0  0  0  0
   54.6111   17.9804   -5.7985 H   0  0  0  0  0  0  0  0  0  0  0  0
   53.3480   17.4235   -1.7868 C   0  0  0  0  0  0  0  0  0  0  0  0
   52.4587   17.4790   -0.5498 C   0  0  0  0  0  0  0  0  0  0  0  0
   51.8779   16.0274   -0.5081 C   0  0  0  0  0  0  0  0  0  0  0  0
   53.0787   17.9424    0.7582 C   0  0  0  0  0  0  0  0  0  0  0  0
  1  2  1  0  0  0
  2  5  1  0  0  0
  2 11  1  0  0  0
  5  6  2  0  0  0
  5  7  1  0  0  0
 11 12  1  0  0  0
 12 13  1  0  0  0
 12 14  1  0  0  0
  7  8  1  0  0  0
  1  3  1  0  0  0
  1  4  1  0  0  0
  7  9  1  0  0  0
  8 10  1  0  0  0
M  END
> <minimizedAffinity>
-5.56346

$$$$
4TLN_LNO_A_322


 14 13  0  0  0  0  0  0  0  0999 V2000
   51.8310   18.7724   -2.5261 N   0  0  0  0  0  0  0  0  0  0  0  0
   53.2605   19.0744   -2.8978 C   0  0  0  0  0  0  0  0  0  0  0  0
   51.2096   19.4197   -3.0112 H   0  0  0  0  0  0  0  0  0  0  0  0
   51.7122   18.8776   -1.5185 H   0  0  0  0  0  0  0  0  0  0  0  0
   53.7371   18.6494   -4.2862 C   0  0  0  0  0  0  0  0  0  0  0  0
   54.8549   18.1236   -4.6003 O   0  0  0  0  0  0  0  0  0  0  0  0
   52.8529   18.9203   -5.1925 N   0  0  0  0  0  0  0  0  0  0  0  0
   53.4096   18.5210   -6.3897 O   0  0  0  0  0  0  0  0  0  0  0  0
   51.9668   19.3270   -5.0555 H   0  0  0  0  0  0  0  0  0  0  0  0
   54.2930   18.1540   -6.2291 H   0  0  0  0  0  0  0  0  0  0  0  0
   53.9537   17.9268   -2.0032 C   0  0  0  0  0  0  0  0  0  0  0  0
   54.3537   18.5130   -0.6540 C   0  0  0  0  0  0  0  0  0  0  0  0
   54.6876   19.9928   -1.0347 C   0  0  0  0  0  0  0  0  0  0  0  0
   53.3821   18.3697    0.5059 C   0  0  0  0  0  0  0  0  0  0  0  0
  1  2  1  0  0  0
  2  5  1  0  0  0
  2 11  1  0  0  0
  5  6  2  0  0  0
  5  7  1  0  0  0
 11 12  1  0  0  0
 12 13  1  0  0  0
 12 14  1  0  0  0
  7  8  1  0  0  0
  1  3  1  0  0  0
  1  4  1  0  0  0
  7  9  1  0  0  0
  8 10  1  0  0  0
M  END
> <minimizedAffinity>
-5.53492

$$$$
4TLN_LNO_A_322


 14 13  0  0  0  0  0  0  0  0999 V2000
   52.0305   18.6372   -3.3806 N   0  0  0  0  0  0  0  0  0  0  0  0
   53.3860   18.0439   -3.6693 C   0  0  0  0  0  0  0  0  0  0  0  0
   51.5248   18.7719   -4.2561 H   0  0  0  0  0  0  0  0  0  0  0  0
   52.1456   19.5362   -2.9127 H   0  0  0  0  0  0  0  0  0  0  0  0
   53.4464   16.5647   -4.0484 C   0  0  0  0  0  0  0  0  0  0  0  0
   54.2887   15.6924   -3.6557 O   0  0  0  0  0  0  0  0  0  0  0  0
   52.5163   16.2557   -4.8946 N   0  0  0  0  0  0  0  0  0  0  0  0
   52.6961   14.9174   -5.1763 O   0  0  0  0  0  0  0  0  0  0  0  0
   51.8242   16.8523   -5.2610 H   0  0  0  0  0  0  0  0  0  0  0  0
   53.4544   14.5803   -4.6741 H   0  0  0  0  0  0  0  0  0  0  0  0
   53.9043   17.9610   -2.1454 C   0  0  0  0  0  0  0  0  0  0  0  0
   53.3983   19.1752   -1.3748 C   0  0  0  0  0  0  0  0  0  0  0  0
   53.0167   18.5427    0.0038 C   0  0  0  0  0  0  0  0  0  0  0  0
   54.3060   20.3902   -1.2757 C   0  0  0  0  0  0  0  0  0  0  0  0
  1  2  1  0  0  0
  2  5  1  0  0  0
  2 11  1  0  0  0
  5  6  2  0  0  0
  5  7  1  0  0  0
 11 12  1  0  0  0
 12 13  1  0  0  0
 12 14  1  0  0  0
  7  8  1  0  0  0
  1  3  1  0  0  0
  1  4  1  0  0  0
  7  9  1  0  0  0
  8 10  1  0  0  0
M  END
> <minimizedAffinity>
-5.20936

$$$$
4TLN_LNO_A_322


 14 13  0  0  0  0  0  0  0  0999 V2000
   49.8557   17.6988   -5.8977 N   0  0  0  0  0  0  0  0  0  0  0  0
   51.1694   18.1258   -6.5018 C   0  0  0  0  0  0  0  0  0  0  0  0
   49.9652   16.7856   -5.4567 H   0  0  0  0  0  0  0  0  0  0  0  0
   49.1480   17.6401   -6.6298 H   0  0  0  0  0  0  0  0  0  0  0  0
   52.2650   18.6048   -5.5502 C   0  0  0  0  0  0  0  0  0  0  0  0
   53.5024   18.7720   -5.8061 O   0  0  0  0  0  0  0  0  0  0  0  0
   51.7996   18.8110   -4.3596 N   0  0  0  0  0  0  0  0  0  0  0  0
   52.8802   19.2054   -3.5984 O   0  0  0  0  0  0  0  0  0  0  0  0
   50.8676   18.7076   -4.0598 H   0  0  0  0  0  0  0  0  0  0  0  0
   53.6770   19.2204   -4.1513 H   0  0  0  0  0  0  0  0  0  0  0  0
   50.6752   19.5422   -7.0912 C   0  0  0  0  0  0  0  0  0  0  0  0
   50.9907   19.6050   -8.5814 C   0  0  0  0  0  0  0  0  0  0  0  0
   50.1309   18.4240   -9.1403 C   0  0  0  0  0  0  0  0  0  0  0  0
   50.7823   20.9264   -9.3027 C   0  0  0  0  0  0  0  0  0  0  0  0
  1  2  1  0  0  0
  2  5  1  0  0  0
  2 11  1  0  0  0
  5  6  2  0  0  0
  5  7  1  0  0  0
 11 12  1  0  0  0
 12 13  1  0  0  0
 12 14  1  0  0  0
  7  8  1  0  0  0
  1  3  1  0  0  0
  1  4  1  0  0  0
  7  9  1  0  0  0
  8 10  1  0  0  0
M  END
> <minimizedAffinity>
-5.02415

$$$$
4TLN_LNO_A_322


 14 13  0  0  0  0  0  0  0  0999 V2000
   55.0149   17.8834   -4.7238 N   0  0  0  0  0  0  0  0  0  0  0  0
   53.6520   17.6909   -4.1088 C   0  0  0  0  0  0  0  0  0  0  0  0
   54.9670   18.6131   -5.4350 H   0  0  0  0  0  0  0  0  0  0  0  0
   55.3208   17.0101   -5.1528 H   0  0  0  0  0  0  0  0  0  0  0  0
   53.1599   18.7546   -3.1281 C   0  0  0  0  0  0  0  0  0  0  0  0
   53.8024   19.7605   -2.6810 O   0  0  0  0  0  0  0  0  0  0  0  0
   51.9512   18.5099   -2.7332 N   0  0  0  0  0  0  0  0  0  0  0  0
   51.6392   19.5131   -1.8394 O   0  0  0  0  0  0  0  0  0  0  0  0
   51.3745   17.7626   -3.0129 H   0  0  0  0  0  0  0  0  0  0  0  0
   52.3946   20.1153   -1.7526 H   0  0  0  0  0  0  0  0  0  0  0  0
   54.0556   16.5239   -3.0729 C   0  0  0  0  0  0  0  0  0  0  0  0
   53.4329   15.2090   -3.5282 C   0  0  0  0  0  0  0  0  0  0  0  0
   52.7403   14.7122   -2.2167 C   0  0  0  0  0  0  0  0  0  0  0  0
   52.5238   15.2306   -4.7460 C   0  0  0  0  0  0  0  0  0  0  0  0
  1  2  1  0  0  0
  2  5  1  0  0  0
  2 11  1  0  0  0
  5  6  2  0  0  0
  5  7  1  0  0  0
 11 12  1  0  0  0
 12 13  1  0  0  0
 12 14  1  0  0  0
  7  8  1  0  0  0
  1  3  1  0  0  0
  1  4  1  0  0  0
  7  9  1  0  0  0
  8 10  1  0  0  0
M  END
> <minimizedAffinity>
-4.98554

$$$$
4TLN_LNO_A_322


 14 13  0  0  0  0  0  0  0  0999 V2000
   52.1899   18.5981   -3.7033 N   0  0  0  0  0  0  0  0  0  0  0  0
   52.4215   19.0140   -2.2728 C   0  0  0  0  0  0  0  0  0  0  0  0
   51.8867   19.4059   -4.2473 H   0  0  0  0  0  0  0  0  0  0  0  0
   51.4694   17.8768   -3.7353 H   0  0  0  0  0  0  0  0  0  0  0  0
   53.6817   19.8214   -1.9642 C   0  0  0  0  0  0  0  0  0  0  0  0
   53.7576   21.0407   -1.6008 O   0  0  0  0  0  0  0  0  0  0  0  0
   54.7517   19.1161   -2.1496 N   0  0  0  0  0  0  0  0  0  0  0  0
   55.8080   19.9580   -1.8701 O   0  0  0  0  0  0  0  0  0  0  0  0
   54.8010   18.1742   -2.4317 H   0  0  0  0  0  0  0  0  0  0  0  0
   55.4679   20.8302   -1.6163 H   0  0  0  0  0  0  0  0  0  0  0  0
   52.8704   17.5725   -1.7085 C   0  0  0  0  0  0  0  0  0  0  0  0
   52.2426   17.3509   -0.3371 C   0  0  0  0  0  0  0  0  0  0  0  0
   51.8153   15.8486   -0.4200 C   0  0  0  0  0  0  0  0  0  0  0  0
   53.0652   17.7002    0.8923 C   0  0  0  0  0  0  0  0  0  0  0  0
  1  2  1  0  0  0
  2  5  1  0  0  0
  2 11  1  0  0  0
  5  6  2  0  0  0
  5  7  1  0  0  0
 11 12  1  0  0  0
 12 13  1  0  0  0
 12 14  1  0  0  0
  7  8  1  0  0  0
  1  3  1  0  0  0
  1  4  1  0  0  0
  7  9  1  0  0  0
  8 10  1  0  0  0
M  END
> <minimizedAffinity>
-4.94413

$$$$
4TLN_LNO_A_322


 14 13  0  0  0  0  0  0  0  0999 V2000
   55.0267   19.6605   -2.2068 N   0  0  0  0  0  0  0  0  0  0  0  0
   54.2820   18.3514   -2.2750 C   0  0  0  0  0  0  0  0  0  0  0  0
   55.7859   19.6556   -2.8880 H   0  0  0  0  0  0  0  0  0  0  0  0
   55.4112   19.7846   -1.2702 H   0  0  0  0  0  0  0  0  0  0  0  0
   53.3483   18.1278   -3.4639 C   0  0  0  0  0  0  0  0  0  0  0  0
   53.5239   17.3502   -4.4584 O   0  0  0  0  0  0  0  0  0  0  0  0
   52.2964   18.8788   -3.3861 N   0  0  0  0  0  0  0  0  0  0  0  0
   51.5583   18.6079   -4.5195 O   0  0  0  0  0  0  0  0  0  0  0  0
   52.0702   19.5120   -2.6669 H   0  0  0  0  0  0  0  0  0  0  0  0
   52.0193   17.9427   -5.0541 H   0  0  0  0  0  0  0  0  0  0  0  0
   53.1972   18.6706   -1.1264 C   0  0  0  0  0  0  0  0  0  0  0  0
   53.0359   17.4466   -0.2321 C   0  0  0  0  0  0  0  0  0  0  0  0
   53.1232   18.0798    1.1954 C   0  0  0  0  0  0  0  0  0  0  0  0
   51.8232   16.5562   -0.4483 C   0  0  0  0  0  0  0  0  0  0  0  0
  1  2  1  0  0  0
  2  5  1  0  0  0
  2 11  1  0  0  0
  5  6  2  0  0  0
  5  7  1  0  0  0
 11 12  1  0  0  0
 12 13  1  0  0  0
 12 14  1  0  0  0
  7  8  1  0  0  0
  1  3  1  0  0  0
  1  4  1  0  0  0
  7  9  1  0  0  0
  8 10  1  0  0  0
M  END
> <minimizedAffinity>
-4.90713

$$$$
4TLN_LNO_A_322


 14 13  0  0  0  0  0  0  0  0999 V2000
   54.6383   17.2221   -4.2841 N   0  0  0  0  0  0  0  0  0  0  0  0
   53.7613   18.4364   -4.4548 C   0  0  0  0  0  0  0  0  0  0  0  0
   55.5623   17.5123   -3.9639 H   0  0  0  0  0  0  0  0  0  0  0  0
   54.7249   16.7369   -5.1771 H   0  0  0  0  0  0  0  0  0  0  0  0
   53.2236   19.1061   -3.1908 C   0  0  0  0  0  0  0  0  0  0  0  0
   53.8150   19.9540   -2.4452 O   0  0  0  0  0  0  0  0  0  0  0  0
   52.0355   18.6812   -2.9001 N   0  0  0  0  0  0  0  0  0  0  0  0
   51.6797   19.3313   -1.7367 O   0  0  0  0  0  0  0  0  0  0  0  0
   51.4976   18.0291   -3.4048 H   0  0  0  0  0  0  0  0  0  0  0  0
   52.4016   19.9170   -1.4599 H   0  0  0  0  0  0  0  0  0  0  0  0
   52.4340   17.6653   -4.9464 C   0  0  0  0  0  0  0  0  0  0  0  0
   52.0647   18.1414   -6.3467 C   0  0  0  0  0  0  0  0  0  0  0  0
   51.0636   17.0318   -6.8080 C   0  0  0  0  0  0  0  0  0  0  0  0
   51.5433   19.5600   -6.5069 C   0  0  0  0  0  0  0  0  0  0  0  0
  1  2  1  0  0  0
  2  5  1  0  0  0
  2 11  1  0  0  0
  5  6  2  0  0  0
  5  7  1  0  0  0
 11 12  1  0  0  0
 12 13  1  0  0  0
 12 14  1  0  0  0
  7  8  1  0  0  0
  1  3  1  0  0  0
  1  4  1  0  0  0
  7  9  1  0  0  0
  8 10  1  0  0  0
M  END
> <minimizedAffinity>
-4.84741

$$$$
4TLN_LNO_A_322


 14 13  0  0  0  0  0  0  0  0999 V2000
   49.5657   17.7125   -5.8746 N   0  0  0  0  0  0  0  0  0  0  0  0
   50.5964   17.5575   -6.9639 C   0  0  0  0  0  0  0  0  0  0  0  0
   49.8669   17.1996   -5.0460 H   0  0  0  0  0  0  0  0  0  0  0  0
   48.6717   17.3424   -6.1973 H   0  0  0  0  0  0  0  0  0  0  0  0
   51.8983   18.3458   -6.8257 C   0  0  0  0  0  0  0  0  0  0  0  0
   52.2331   19.4125   -7.4377 O   0  0  0  0  0  0  0  0  0  0  0  0
   52.7097   17.7754   -5.9933 N   0  0  0  0  0  0  0  0  0  0  0  0
   53.8450   18.5587   -5.9810 O   0  0  0  0  0  0  0  0  0  0  0  0
   52.5495   16.9531   -5.4762 H   0  0  0  0  0  0  0  0  0  0  0  0
   53.7279   19.3073   -6.5867 H   0  0  0  0  0  0  0  0  0  0  0  0
   49.8508   18.4470   -8.0822 C   0  0  0  0  0  0  0  0  0  0  0  0
   49.9859   17.7660   -9.4394 C   0  0  0  0  0  0  0  0  0  0  0  0
   49.5713   16.2960   -9.1024 C   0  0  0  0  0  0  0  0  0  0  0  0
   49.2444   18.3697  -10.6208 C   0  0  0  0  0  0  0  0  0  0  0  0
  1  2  1  0  0  0
  2  5  1  0  0  0
  2 11  1  0  0  0
  5  6  2  0  0  0
  5  7  1  0  0  0
 11 12  1  0  0  0
 12 13  1  0  0  0
 12 14  1  0  0  0
  7  8  1  0  0  0
  1  3  1  0  0  0
  1  4  1  0  0  0
  7  9  1  0  0  0
  8 10  1  0  0  0
M  END
> <minimizedAffinity>
-4.67552

$$$$
