3GBE_NOJ_A_8000


 16 16  0  0  0  0  0  0  0  0999 V2000
   15.1732   37.3908   42.7445 C   0  0  0  0  0  0  0  0  0  0  0  0
   14.3815   37.5300   44.0798 C   0  0  0  0  0  0  0  0  0  0  0  0
   13.9057   36.2769   44.5029 O   0  0  0  0  0  0  0  0  0  0  0  0
   13.1899   38.5025   43.8527 C   0  0  0  0  0  0  0  0  0  0  0  0
   12.3733   38.6337   45.0094 O   0  0  0  0  0  0  0  0  0  0  0  0
   13.7825   39.8932   43.4986 C   0  0  0  0  0  0  0  0  0  0  0  0
   12.7043   40.8529   43.2824 O   0  0  0  0  0  0  0  0  0  0  0  0
   14.7011   39.7648   42.2264 C   0  0  0  0  0  0  0  0  0  0  0  0
   15.7197   38.7274   42.3438 N   0  0  0  0  0  0  0  0  0  0  0  0
   13.3160   35.9096   43.8261 H   0  0  0  0  0  0  0  0  0  0  0  0
   12.9038   38.9852   45.7414 H   0  0  0  0  0  0  0  0  0  0  0  0
   12.1456   40.5516   42.5490 H   0  0  0  0  0  0  0  0  0  0  0  0
   16.1842   38.6282   41.4412 H   0  0  0  0  0  0  0  0  0  0  0  0
   15.4577   41.1025   41.9153 C   0  0  0  0  0  0  0  0  0  0  0  0
   16.2064   41.4363   43.1728 O   0  0  0  0  0  0  0  0  0  0  0  0
   15.5809   41.5174   43.9097 H   0  0  0  0  0  0  0  0  0  0  0  0
  1  2  1  0  0  0
  1  9  1  0  0  0
  2  3  1  0  0  0
  2  4  1  0  0  0
  4  5  1  0  0  0
  4  6  1  0  0  0
  6  7  1  0  0  0
  6  8  1  0  0  0
  8  9  1  0  0  0
  8 14  1  0  0  0
 14 15  1  0  0  0
  3 10  1  0  0  0
  5 11  1  0  0  0
  7 12  1  0  0  0
  9 13  1  0  0  0
 15 16  1  0  0  0
M  END
> <minimizedAffinity>
-6.73696

$$$$
3GBE_NOJ_A_8000


 16 16  0  0  0  0  0  0  0  0999 V2000
   13.7862   35.1412   42.5322 C   0  0  0  0  0  0  0  0  0  0  0  0
   14.1333   36.6399   42.2819 C   0  0  0  0  0  0  0  0  0  0  0  0
   14.6075   37.2390   43.4617 O   0  0  0  0  0  0  0  0  0  0  0  0
   12.8524   37.3719   41.7912 C   0  0  0  0  0  0  0  0  0  0  0  0
   13.0667   38.7649   41.6025 O   0  0  0  0  0  0  0  0  0  0  0  0
   12.4445   36.7402   40.4328 C   0  0  0  0  0  0  0  0  0  0  0  0
   11.2473   37.3975   39.9181 O   0  0  0  0  0  0  0  0  0  0  0  0
   12.2155   35.1938   40.6199 C   0  0  0  0  0  0  0  0  0  0  0  0
   13.3391   34.5089   41.2492 N   0  0  0  0  0  0  0  0  0  0  0  0
   13.9244   37.1862   44.1483 H   0  0  0  0  0  0  0  0  0  0  0  0
   13.7559   38.8982   40.9330 H   0  0  0  0  0  0  0  0  0  0  0  0
   10.5199   37.2852   40.5499 H   0  0  0  0  0  0  0  0  0  0  0  0
   13.0621   33.5467   41.4436 H   0  0  0  0  0  0  0  0  0  0  0  0
   11.9602   34.4718   39.2516 C   0  0  0  0  0  0  0  0  0  0  0  0
   10.5191   34.7371   38.9260 O   0  0  0  0  0  0  0  0  0  0  0  0
    9.9584   34.4004   39.6424 H   0  0  0  0  0  0  0  0  0  0  0  0
  1  2  1  0  0  0
  1  9  1  0  0  0
  2  3  1  0  0  0
  2  4  1  0  0  0
  4  5  1  0  0  0
  4  6  1  0  0  0
  6  7  1  0  0  0
  6  8  1  0  0  0
  8  9  1  0  0  0
  8 14  1  0  0  0
 14 15  1  0  0  0
  3 10  1  0  0  0
  5 11  1  0  0  0
  7 12  1  0  0  0
  9 13  1  0  0  0
 15 16  1  0  0  0
M  END
> <minimizedAffinity>
-6.65607

$$$$
3GBE_NOJ_A_8000


 16 16  0  0  0  0  0  0  0  0999 V2000
   12.9742   35.5904   38.5496 C   0  0  0  0  0  0  0  0  0  0  0  0
   12.1078   34.5486   39.3197 C   0  0  0  0  0  0  0  0  0  0  0  0
   10.8077   34.5002   38.7878 O   0  0  0  0  0  0  0  0  0  0  0  0
   12.0543   34.9571   40.8189 C   0  0  0  0  0  0  0  0  0  0  0  0
   11.2248   34.0920   41.5839 O   0  0  0  0  0  0  0  0  0  0  0  0
   13.5019   34.8830   41.3755 C   0  0  0  0  0  0  0  0  0  0  0  0
   13.5111   35.2494   42.7882 O   0  0  0  0  0  0  0  0  0  0  0  0
   14.4386   35.8259   40.5313 C   0  0  0  0  0  0  0  0  0  0  0  0
   14.3701   35.5828   39.0947 N   0  0  0  0  0  0  0  0  0  0  0  0
   10.3927   35.3732   38.8682 H   0  0  0  0  0  0  0  0  0  0  0  0
   11.5719   33.1873   41.5382 H   0  0  0  0  0  0  0  0  0  0  0  0
   13.1797   36.1555   42.8893 H   0  0  0  0  0  0  0  0  0  0  0  0
   14.9057   36.3091   38.6191 H   0  0  0  0  0  0  0  0  0  0  0  0
   15.9443   35.6712   40.9406 C   0  0  0  0  0  0  0  0  0  0  0  0
   16.1622   36.6733   42.0368 O   0  0  0  0  0  0  0  0  0  0  0  0
   15.9477   37.5612   41.7104 H   0  0  0  0  0  0  0  0  0  0  0  0
  1  2  1  0  0  0
  1  9  1  0  0  0
  2  3  1  0  0  0
  2  4  1  0  0  0
  4  5  1  0  0  0
  4  6  1  0  0  0
  6  7  1  0  0  0
  6  8  1  0  0  0
  8  9  1  0  0  0
  8 14  1  0  0  0
 14 15  1  0  0  0
  3 10  1  0  0  0
  5 11  1  0  0  0
  7 12  1  0  0  0
  9 13  1  0  0  0
 15 16  1  0  0  0
M  END
> <minimizedAffinity>
-6.52850

$$$$
3GBE_NOJ_A_8000


 16 16  0  0  0  0  0  0  0  0999 V2000
   13.4347   34.3073   41.9965 C   0  0  0  0  0  0  0  0  0  0  0  0
   12.0888   34.6941   41.3123 C   0  0  0  0  0  0  0  0  0  0  0  0
   11.7015   33.7038   40.3930 O   0  0  0  0  0  0  0  0  0  0  0  0
   12.2747   36.0541   40.5822 C   0  0  0  0  0  0  0  0  0  0  0  0
   11.1074   36.4488   39.8726 O   0  0  0  0  0  0  0  0  0  0  0  0
   12.5896   37.1248   41.6616 C   0  0  0  0  0  0  0  0  0  0  0  0
   12.7660   38.4295   41.0315 O   0  0  0  0  0  0  0  0  0  0  0  0
   13.8733   36.6975   42.4670 C   0  0  0  0  0  0  0  0  0  0  0  0
   13.7976   35.3470   43.0129 N   0  0  0  0  0  0  0  0  0  0  0  0
   12.3845   33.6113   39.7105 H   0  0  0  0  0  0  0  0  0  0  0  0
   10.3692   36.5476   40.4941 H   0  0  0  0  0  0  0  0  0  0  0  0
   13.5037   38.3879   40.4030 H   0  0  0  0  0  0  0  0  0  0  0  0
   14.7069   35.1077   43.4081 H   0  0  0  0  0  0  0  0  0  0  0  0
   14.1484   37.6553   43.6776 C   0  0  0  0  0  0  0  0  0  0  0  0
   14.3105   36.7544   44.8673 O   0  0  0  0  0  0  0  0  0  0  0  0
   13.5082   36.2211   44.9808 H   0  0  0  0  0  0  0  0  0  0  0  0
  1  2  1  0  0  0
  1  9  1  0  0  0
  2  3  1  0  0  0
  2  4  1  0  0  0
  4  5  1  0  0  0
  4  6  1  0  0  0
  6  7  1  0  0  0
  6  8  1  0  0  0
  8  9  1  0  0  0
  8 14  1  0  0  0
 14 15  1  0  0  0
  3 10  1  0  0  0
  5 11  1  0  0  0
  7 12  1  0  0  0
  9 13  1  0  0  0
 15 16  1  0  0  0
M  END
> <minimizedAffinity>
-6.41587

$$$$
3GBE_NOJ_A_8000


 16 16  0  0  0  0  0  0  0  0999 V2000
   13.5663   39.3415   41.8851 C   0  0  0  0  0  0  0  0  0  0  0  0
   14.7640   39.0349   42.8341 C   0  0  0  0  0  0  0  0  0  0  0  0
   15.5602   40.1801   43.0077 O   0  0  0  0  0  0  0  0  0  0  0  0
   15.6101   37.8879   42.2128 C   0  0  0  0  0  0  0  0  0  0  0  0
   16.7653   37.5905   42.9866 O   0  0  0  0  0  0  0  0  0  0  0  0
   14.7104   36.6240   42.1513 C   0  0  0  0  0  0  0  0  0  0  0  0
   15.4588   35.5079   41.5819 O   0  0  0  0  0  0  0  0  0  0  0  0
   13.4184   36.9389   41.3083 C   0  0  0  0  0  0  0  0  0  0  0  0
   12.7001   38.1249   41.7614 N   0  0  0  0  0  0  0  0  0  0  0  0
   15.9070   40.4661   42.1482 H   0  0  0  0  0  0  0  0  0  0  0  0
   16.4958   37.3086   43.8747 H   0  0  0  0  0  0  0  0  0  0  0  0
   15.7455   35.7356   40.6836 H   0  0  0  0  0  0  0  0  0  0  0  0
   11.9559   38.3257   41.0934 H   0  0  0  0  0  0  0  0  0  0  0  0
   12.3935   35.7528   41.3459 C   0  0  0  0  0  0  0  0  0  0  0  0
   12.7171   34.9886   42.5967 O   0  0  0  0  0  0  0  0  0  0  0  0
   13.6398   34.6911   42.5642 H   0  0  0  0  0  0  0  0  0  0  0  0
  1  2  1  0  0  0
  1  9  1  0  0  0
  2  3  1  0  0  0
  2  4  1  0  0  0
  4  5  1  0  0  0
  4  6  1  0  0  0
  6  7  1  0  0  0
  6  8  1  0  0  0
  8  9  1  0  0  0
  8 14  1  0  0  0
 14 15  1  0  0  0
  3 10  1  0  0  0
  5 11  1  0  0  0
  7 12  1  0  0  0
  9 13  1  0  0  0
 15 16  1  0  0  0
M  END
> <minimizedAffinity>
-6.37697

$$$$
3GBE_NOJ_A_8000


 16 16  0  0  0  0  0  0  0  0999 V2000
   11.6753   36.4845   40.6719 C   0  0  0  0  0  0  0  0  0  0  0  0
   12.7238   36.4484   39.5194 C   0  0  0  0  0  0  0  0  0  0  0  0
   12.1955   35.7933   38.3936 O   0  0  0  0  0  0  0  0  0  0  0  0
   13.9913   35.7019   40.0231 C   0  0  0  0  0  0  0  0  0  0  0  0
   14.9761   35.5655   39.0066 O   0  0  0  0  0  0  0  0  0  0  0  0
   14.5896   36.5322   41.1907 C   0  0  0  0  0  0  0  0  0  0  0  0
   15.7922   35.8803   41.6995 O   0  0  0  0  0  0  0  0  0  0  0  0
   13.5076   36.7048   42.3214 C   0  0  0  0  0  0  0  0  0  0  0  0
   12.2384   37.2374   41.8388 N   0  0  0  0  0  0  0  0  0  0  0  0
   11.9591   34.8829   38.6306 H   0  0  0  0  0  0  0  0  0  0  0  0
   15.2535   36.4447   38.7051 H   0  0  0  0  0  0  0  0  0  0  0  0
   15.5670   34.9946   42.0246 H   0  0  0  0  0  0  0  0  0  0  0  0
   11.5627   37.2013   42.6021 H   0  0  0  0  0  0  0  0  0  0  0  0
   13.9971   37.6713   43.4550 C   0  0  0  0  0  0  0  0  0  0  0  0
   14.6013   36.7810   44.5017 O   0  0  0  0  0  0  0  0  0  0  0  0
   13.9365   36.1443   44.8076 H   0  0  0  0  0  0  0  0  0  0  0  0
  1  2  1  0  0  0
  1  9  1  0  0  0
  2  3  1  0  0  0
  2  4  1  0  0  0
  4  5  1  0  0  0
  4  6  1  0  0  0
  6  7  1  0  0  0
  6  8  1  0  0  0
  8  9  1  0  0  0
  8 14  1  0  0  0
 14 15  1  0  0  0
  3 10  1  0  0  0
  5 11  1  0  0  0
  7 12  1  0  0  0
  9 13  1  0  0  0
 15 16  1  0  0  0
M  END
> <minimizedAffinity>
-6.35389

$$$$
3GBE_NOJ_A_8000


 16 16  0  0  0  0  0  0  0  0999 V2000
   13.6582   39.2991   41.8964 C   0  0  0  0  0  0  0  0  0  0  0  0
   13.6129   38.6712   43.3222 C   0  0  0  0  0  0  0  0  0  0  0  0
   14.2752   39.4984   44.2457 O   0  0  0  0  0  0  0  0  0  0  0  0
   14.2961   37.2754   43.2730 C   0  0  0  0  0  0  0  0  0  0  0  0
   14.3571   36.6598   44.5533 O   0  0  0  0  0  0  0  0  0  0  0  0
   13.4558   36.3769   42.3258 C   0  0  0  0  0  0  0  0  0  0  0  0
   14.0482   35.0453   42.2479 O   0  0  0  0  0  0  0  0  0  0  0  0
   13.3663   37.0498   40.9051 C   0  0  0  0  0  0  0  0  0  0  0  0
   12.8971   38.4305   40.9414 N   0  0  0  0  0  0  0  0  0  0  0  0
   15.2019   39.6036   43.9791 H   0  0  0  0  0  0  0  0  0  0  0  0
   13.4579   36.5349   44.8951 H   0  0  0  0  0  0  0  0  0  0  0  0
   14.9513   35.1130   41.9004 H   0  0  0  0  0  0  0  0  0  0  0  0
   12.9860   38.8257   40.0054 H   0  0  0  0  0  0  0  0  0  0  0  0
   12.3956   36.2717   39.9508 C   0  0  0  0  0  0  0  0  0  0  0  0
   11.1007   37.0296   39.9983 O   0  0  0  0  0  0  0  0  0  0  0  0
   10.7819   37.0681   40.9136 H   0  0  0  0  0  0  0  0  0  0  0  0
  1  2  1  0  0  0
  1  9  1  0  0  0
  2  3  1  0  0  0
  2  4  1  0  0  0
  4  5  1  0  0  0
  4  6  1  0  0  0
  6  7  1  0  0  0
  6  8  1  0  0  0
  8  9  1  0  0  0
  8 14  1  0  0  0
 14 15  1  0  0  0
  3 10  1  0  0  0
  5 11  1  0  0  0
  7 12  1  0  0  0
  9 13  1  0  0  0
 15 16  1  0  0  0
M  END
> <minimizedAffinity>
-6.35282

$$$$
3GBE_NOJ_A_8000


 16 16  0  0  0  0  0  0  0  0999 V2000
   12.8672   37.7591   40.4593 C   0  0  0  0  0  0  0  0  0  0  0  0
   14.0326   36.7257   40.5143 C   0  0  0  0  0  0  0  0  0  0  0  0
   13.9710   35.8551   39.4126 O   0  0  0  0  0  0  0  0  0  0  0  0
   13.9190   35.9177   41.8378 C   0  0  0  0  0  0  0  0  0  0  0  0
   14.9102   34.9031   41.9366 O   0  0  0  0  0  0  0  0  0  0  0  0
   14.1064   36.9158   43.0123 C   0  0  0  0  0  0  0  0  0  0  0  0
   14.0178   36.2080   44.2856 O   0  0  0  0  0  0  0  0  0  0  0  0
   13.0243   38.0551   42.9118 C   0  0  0  0  0  0  0  0  0  0  0  0
   12.9869   38.7118   41.6099 N   0  0  0  0  0  0  0  0  0  0  0  0
   13.1273   35.3766   39.4254 H   0  0  0  0  0  0  0  0  0  0  0  0
   15.7912   35.3085   41.9147 H   0  0  0  0  0  0  0  0  0  0  0  0
   13.1462   35.7894   44.3628 H   0  0  0  0  0  0  0  0  0  0  0  0
   12.1859   39.3430   41.5902 H   0  0  0  0  0  0  0  0  0  0  0  0
   13.2629   39.1822   43.9754 C   0  0  0  0  0  0  0  0  0  0  0  0
   12.6661   38.6582   45.2492 O   0  0  0  0  0  0  0  0  0  0  0  0
   11.7265   38.4621   45.1093 H   0  0  0  0  0  0  0  0  0  0  0  0
  1  2  1  0  0  0
  1  9  1  0  0  0
  2  3  1  0  0  0
  2  4  1  0  0  0
  4  5  1  0  0  0
  4  6  1  0  0  0
  6  7  1  0  0  0
  6  8  1  0  0  0
  8  9  1  0  0  0
  8 14  1  0  0  0
 14 15  1  0  0  0
  3 10  1  0  0  0
  5 11  1  0  0  0
  7 12  1  0  0  0
  9 13  1  0  0  0
 15 16  1  0  0  0
M  END
> <minimizedAffinity>
-6.34088

$$$$
3GBE_NOJ_A_8000


 16 16  0  0  0  0  0  0  0  0999 V2000
   13.8699   39.7011   41.8046 C   0  0  0  0  0  0  0  0  0  0  0  0
   12.8310   39.5772   42.9598 C   0  0  0  0  0  0  0  0  0  0  0  0
   12.4492   40.8504   43.4171 O   0  0  0  0  0  0  0  0  0  0  0  0
   13.4720   38.7652   44.1204 C   0  0  0  0  0  0  0  0  0  0  0  0
   12.6100   38.6627   45.2466 O   0  0  0  0  0  0  0  0  0  0  0  0
   13.7671   37.3380   43.5851 C   0  0  0  0  0  0  0  0  0  0  0  0
   14.3644   36.5248   44.6396 O   0  0  0  0  0  0  0  0  0  0  0  0
   14.7108   37.4327   42.3283 C   0  0  0  0  0  0  0  0  0  0  0  0
   14.2177   38.3356   41.2943 N   0  0  0  0  0  0  0  0  0  0  0  0
   13.2295   41.3228   43.7470 H   0  0  0  0  0  0  0  0  0  0  0  0
   11.7924   38.2095   44.9878 H   0  0  0  0  0  0  0  0  0  0  0  0
   15.1959   36.9315   44.9297 H   0  0  0  0  0  0  0  0  0  0  0  0
   14.9395   38.4327   40.5802 H   0  0  0  0  0  0  0  0  0  0  0  0
   14.9137   36.0364   41.6443 C   0  0  0  0  0  0  0  0  0  0  0  0
   16.4005   35.8602   41.5360 O   0  0  0  0  0  0  0  0  0  0  0  0
   16.7763   36.5920   41.0220 H   0  0  0  0  0  0  0  0  0  0  0  0
  1  2  1  0  0  0
  1  9  1  0  0  0
  2  3  1  0  0  0
  2  4  1  0  0  0
  4  5  1  0  0  0
  4  6  1  0  0  0
  6  7  1  0  0  0
  6  8  1  0  0  0
  8  9  1  0  0  0
  8 14  1  0  0  0
 14 15  1  0  0  0
  3 10  1  0  0  0
  5 11  1  0  0  0
  7 12  1  0  0  0
  9 13  1  0  0  0
 15 16  1  0  0  0
M  END
> <minimizedAffinity>
-6.33078

$$$$
3GBE_NOJ_A_8000


 16 16  0  0  0  0  0  0  0  0999 V2000
   13.5831   38.2334   42.4570 C   0  0  0  0  0  0  0  0  0  0  0  0
   14.6688   37.1283   42.6280 C   0  0  0  0  0  0  0  0  0  0  0  0
   15.9042   37.7015   42.9759 O   0  0  0  0  0  0  0  0  0  0  0  0
   14.8018   36.3501   41.2885 C   0  0  0  0  0  0  0  0  0  0  0  0
   15.8236   35.3625   41.3382 O   0  0  0  0  0  0  0  0  0  0  0  0
   13.4427   35.6501   41.0177 C   0  0  0  0  0  0  0  0  0  0  0  0
   13.5123   34.8938   39.7714 O   0  0  0  0  0  0  0  0  0  0  0  0
   12.2960   36.7281   40.9722 C   0  0  0  0  0  0  0  0  0  0  0  0
   12.2635   37.5959   42.1442 N   0  0  0  0  0  0  0  0  0  0  0  0
   16.1859   38.3117   42.2765 H   0  0  0  0  0  0  0  0  0  0  0  0
   15.6168   34.7180   42.0330 H   0  0  0  0  0  0  0  0  0  0  0  0
   13.7087   35.4970   39.0376 H   0  0  0  0  0  0  0  0  0  0  0  0
   11.5798   38.3346   41.9793 H   0  0  0  0  0  0  0  0  0  0  0  0
   10.8780   36.0677   40.8642 C   0  0  0  0  0  0  0  0  0  0  0  0
   11.0806   34.6292   41.2427 O   0  0  0  0  0  0  0  0  0  0  0  0
   11.7322   34.2269   40.6474 H   0  0  0  0  0  0  0  0  0  0  0  0
  1  2  1  0  0  0
  1  9  1  0  0  0
  2  3  1  0  0  0
  2  4  1  0  0  0
  4  5  1  0  0  0
  4  6  1  0  0  0
  6  7  1  0  0  0
  6  8  1  0  0  0
  8  9  1  0  0  0
  8 14  1  0  0  0
 14 15  1  0  0  0
  3 10  1  0  0  0
  5 11  1  0  0  0
  7 12  1  0  0  0
  9 13  1  0  0  0
 15 16  1  0  0  0
M  END
> <minimizedAffinity>
-6.30237

$$$$
