5MMG_UT0_A_1201


 27 29  0  0  0  0  0  0  0  0999 V2000
   -3.3265   -1.7874   -1.5747 N   0  0  0  0  0  0  0  0  0  0  0  0
   -2.9966   -2.6615   -1.2644 H   0  0  0  0  0  0  0  0  0  0  0  0
   -3.4103    0.5257   -0.8406 C   0  0  0  0  0  0  0  0  0  0  0  0
   -2.7154    1.6406   -0.3459 C   0  0  0  0  0  0  0  0  0  0  0  0
   -0.5130    2.4619    0.3438 C   0  0  0  0  0  0  0  0  0  0  0  0
    0.6902    1.8846    0.4163 C   0  0  0  0  0  0  0  0  0  0  0  0
   -1.3488   -0.6700   -0.8234 C   0  0  0  0  0  0  0  0  0  0  0  0
   -2.7229   -0.6606   -1.0971 C   0  0  0  0  0  0  0  0  0  0  0  0
   -1.3923    1.5589   -0.1140 C   0  0  0  0  0  0  0  0  0  0  0  0
   -0.7244    0.4192   -0.3483 C   0  0  0  0  0  0  0  0  0  0  0  0
    0.5735    0.6360   -0.0498 N   0  0  0  0  0  0  0  0  0  0  0  0
    3.2308    0.3851    0.4958 C   0  0  0  0  0  0  0  0  0  0  0  0
    1.4938   -1.6040    0.9088 O   0  0  0  0  0  0  0  0  0  0  0  0
    2.0274   -0.9889   -1.4986 O   0  0  0  0  0  0  0  0  0  0  0  0
    1.7888   -0.4837   -0.0701 S   0  0  0  0  0  0  0  0  0  0  0  0
   -6.4706   -1.6359   -4.3215 C   0  0  0  0  0  0  0  0  0  0  0  0
   -5.1415   -1.5447   -4.7446 C   0  0  0  0  0  0  0  0  0  0  0  0
   -5.7047   -1.8253   -2.0555 C   0  0  0  0  0  0  0  0  0  0  0  0
   -6.7683   -1.7740   -2.9693 C   0  0  0  0  0  0  0  0  0  0  0  0
   -4.3688   -1.7638   -2.4646 C   0  0  0  0  0  0  0  0  0  0  0  0
   -4.0962   -1.6042   -3.8198 C   0  0  0  0  0  0  0  0  0  0  0  0
   -8.4458   -2.0620   -1.1029 C   0  0  0  0  0  0  0  0  0  0  0  0
   -8.1257   -1.8777   -2.5964 C   0  0  0  0  0  0  0  0  0  0  0  0
   -9.0422   -1.9408   -3.4359 O   0  0  0  0  0  0  0  0  0  0  0  0
   -2.7712   -1.5137   -4.1460 O   0  0  0  0  0  0  0  0  0  0  0  0
   -1.6823   -1.1492   -6.2587 C   0  0  0  0  0  0  0  0  0  0  0  0
   -2.4181   -2.1446   -5.3716 C   0  0  0  0  0  0  0  0  0  0  0  0
 26 27  1  0  0  0
 27 25  1  0  0  0
 17 16  2  0  0  0
 17 21  1  0  0  0
 25 21  1  0  0  0
 16 19  1  0  0  0
 21 20  2  0  0  0
 24 23  2  0  0  0
 19 23  1  0  0  0
 19 18  2  0  0  0
 20 18  1  0  0  0
 20  1  1  0  0  0
 23 22  1  0  0  0
  3  4  2  0  0  0
  3  8  1  0  0  0
  1  8  1  0  0  0
  4  9  1  0  0  0
  8  7  2  0  0  0
  9  5  1  0  0  0
  9 10  2  0  0  0
  7 10  1  0  0  0
  5  6  2  0  0  0
 10 11  1  0  0  0
  6 11  1  0  0  0
 11 15  1  0  0  0
 12 15  1  0  0  0
 15 13  2  0  0  0
 15 14  2  0  0  0
  1  2  1  0  0  0
M  END
> <minimizedAffinity>
-8.14846

$$$$
5MMG_UT0_A_1201


 27 29  0  0  0  0  0  0  0  0999 V2000
   -2.2711   -2.2417   -5.5638 N   0  0  0  0  0  0  0  0  0  0  0  0
   -1.3622   -1.8636   -5.5491 H   0  0  0  0  0  0  0  0  0  0  0  0
   -3.6195   -2.4454   -7.5730 C   0  0  0  0  0  0  0  0  0  0  0  0
   -3.9716   -3.2132   -8.6941 C   0  0  0  0  0  0  0  0  0  0  0  0
   -3.5456   -5.3181   -9.8724 C   0  0  0  0  0  0  0  0  0  0  0  0
   -2.7132   -6.3375   -9.6393 C   0  0  0  0  0  0  0  0  0  0  0  0
   -2.0993   -4.1758   -6.9616 C   0  0  0  0  0  0  0  0  0  0  0  0
   -2.6690   -2.9285   -6.6737 C   0  0  0  0  0  0  0  0  0  0  0  0
   -3.3865   -4.4072   -8.9013 C   0  0  0  0  0  0  0  0  0  0  0  0
   -2.4641   -4.8758   -8.0473 C   0  0  0  0  0  0  0  0  0  0  0  0
   -2.0735   -6.0888   -8.4909 N   0  0  0  0  0  0  0  0  0  0  0  0
   -0.8907   -8.5206   -8.8219 C   0  0  0  0  0  0  0  0  0  0  0  0
    0.4713   -6.3680   -8.0121 O   0  0  0  0  0  0  0  0  0  0  0  0
   -1.2007   -7.3817   -6.3886 O   0  0  0  0  0  0  0  0  0  0  0  0
   -0.8809   -7.0352   -7.8483 S   0  0  0  0  0  0  0  0  0  0  0  0
   -4.6706   -1.7311   -2.1822 C   0  0  0  0  0  0  0  0  0  0  0  0
   -3.2765   -1.7284   -2.0814 C   0  0  0  0  0  0  0  0  0  0  0  0
   -4.4688   -2.0796   -4.5476 C   0  0  0  0  0  0  0  0  0  0  0  0
   -5.2841   -1.9106   -3.4183 C   0  0  0  0  0  0  0  0  0  0  0  0
   -3.0728   -2.0513   -4.4684 C   0  0  0  0  0  0  0  0  0  0  0  0
   -2.4820   -1.8919   -3.2186 C   0  0  0  0  0  0  0  0  0  0  0  0
   -7.4607   -2.1414   -2.1576 C   0  0  0  0  0  0  0  0  0  0  0  0
   -6.6946   -1.8893   -3.4677 C   0  0  0  0  0  0  0  0  0  0  0  0
   -7.3203   -1.7914   -4.5389 O   0  0  0  0  0  0  0  0  0  0  0  0
   -1.1145   -1.9111   -3.2084 O   0  0  0  0  0  0  0  0  0  0  0  0
   -0.2476   -4.1417   -2.9745 C   0  0  0  0  0  0  0  0  0  0  0  0
   -0.5415   -2.8206   -2.2763 C   0  0  0  0  0  0  0  0  0  0  0  0
 26 27  1  0  0  0
 27 25  1  0  0  0
 17 16  2  0  0  0
 17 21  1  0  0  0
 25 21  1  0  0  0
 16 19  1  0  0  0
 21 20  2  0  0  0
 24 23  2  0  0  0
 19 23  1  0  0  0
 19 18  2  0  0  0
 20 18  1  0  0  0
 20  1  1  0  0  0
 23 22  1  0  0  0
  3  4  2  0  0  0
  3  8  1  0  0  0
  1  8  1  0  0  0
  4  9  1  0  0  0
  8  7  2  0  0  0
  9  5  1  0  0  0
  9 10  2  0  0  0
  7 10  1  0  0  0
  5  6  2  0  0  0
 10 11  1  0  0  0
  6 11  1  0  0  0
 11 15  1  0  0  0
 12 15  1  0  0  0
 15 13  2  0  0  0
 15 14  2  0  0  0
  1  2  1  0  0  0
M  END
> <minimizedAffinity>
-7.71436

$$$$
5MMG_UT0_A_1201


 27 29  0  0  0  0  0  0  0  0999 V2000
   -3.5566   -1.4208   -1.2241 N   0  0  0  0  0  0  0  0  0  0  0  0
   -3.7562   -2.1205   -0.5609 H   0  0  0  0  0  0  0  0  0  0  0  0
   -3.2781    0.9056   -0.5867 C   0  0  0  0  0  0  0  0  0  0  0  0
   -2.4062    1.9330   -0.1933 C   0  0  0  0  0  0  0  0  0  0  0  0
   -0.0677    2.4740    0.2960 C   0  0  0  0  0  0  0  0  0  0  0  0
    1.0514    1.7432    0.3045 C   0  0  0  0  0  0  0  0  0  0  0  0
   -1.3965   -0.5545   -0.6697 C   0  0  0  0  0  0  0  0  0  0  0  0
   -2.7747   -0.3700   -0.8416 C   0  0  0  0  0  0  0  0  0  0  0  0
   -1.0912    1.6823   -0.0562 C   0  0  0  0  0  0  0  0  0  0  0  0
   -0.5991    0.4563   -0.2896 C   0  0  0  0  0  0  0  0  0  0  0  0
    0.7355    0.5068   -0.0972 N   0  0  0  0  0  0  0  0  0  0  0  0
    3.3744   -0.0770    0.2456 C   0  0  0  0  0  0  0  0  0  0  0  0
    1.4347   -1.7972    0.8959 O   0  0  0  0  0  0  0  0  0  0  0  0
    1.8348   -1.3540   -1.5744 O   0  0  0  0  0  0  0  0  0  0  0  0
    1.7880   -0.7658   -0.1585 S   0  0  0  0  0  0  0  0  0  0  0  0
   -5.1933   -1.8941   -5.0386 C   0  0  0  0  0  0  0  0  0  0  0  0
   -6.0126   -1.8274   -3.9082 C   0  0  0  0  0  0  0  0  0  0  0  0
   -3.2715   -1.6482   -3.6232 C   0  0  0  0  0  0  0  0  0  0  0  0
   -3.8105   -1.8087   -4.9087 C   0  0  0  0  0  0  0  0  0  0  0  0
   -4.0783   -1.5515   -2.4850 C   0  0  0  0  0  0  0  0  0  0  0  0
   -5.4571   -1.6611   -2.6373 C   0  0  0  0  0  0  0  0  0  0  0  0
   -1.6878   -1.1125   -6.0875 C   0  0  0  0  0  0  0  0  0  0  0  0
   -3.0294   -1.8655   -6.0830 C   0  0  0  0  0  0  0  0  0  0  0  0
   -3.4414   -2.3976   -7.1297 O   0  0  0  0  0  0  0  0  0  0  0  0
   -6.1832   -1.5954   -1.4803 O   0  0  0  0  0  0  0  0  0  0  0  0
   -8.4776   -1.7288   -0.7733 C   0  0  0  0  0  0  0  0  0  0  0  0
   -7.3176   -2.4535   -1.4429 C   0  0  0  0  0  0  0  0  0  0  0  0
 26 27  1  0  0  0
 27 25  1  0  0  0
 17 16  2  0  0  0
 17 21  1  0  0  0
 25 21  1  0  0  0
 16 19  1  0  0  0
 21 20  2  0  0  0
 24 23  2  0  0  0
 19 23  1  0  0  0
 19 18  2  0  0  0
 20 18  1  0  0  0
 20  1  1  0  0  0
 23 22  1  0  0  0
  3  4  2  0  0  0
  3  8  1  0  0  0
  1  8  1  0  0  0
  4  9  1  0  0  0
  8  7  2  0  0  0
  9  5  1  0  0  0
  9 10  2  0  0  0
  7 10  1  0  0  0
  5  6  2  0  0  0
 10 11  1  0  0  0
  6 11  1  0  0  0
 11 15  1  0  0  0
 12 15  1  0  0  0
 15 13  2  0  0  0
 15 14  2  0  0  0
  1  2  1  0  0  0
M  END
> <minimizedAffinity>
-7.70674

$$$$
5MMG_UT0_A_1201


 27 29  0  0  0  0  0  0  0  0999 V2000
   -1.9429   -1.4785   -2.9844 N   0  0  0  0  0  0  0  0  0  0  0  0
   -1.5528   -0.5906   -3.1536 H   0  0  0  0  0  0  0  0  0  0  0  0
   -0.9811   -3.7064   -3.0723 C   0  0  0  0  0  0  0  0  0  0  0  0
   -0.1275   -4.6553   -2.4880 C   0  0  0  0  0  0  0  0  0  0  0  0
    1.3994   -5.0671   -0.6172 C   0  0  0  0  0  0  0  0  0  0  0  0
    1.8136   -4.3077    0.4017 C   0  0  0  0  0  0  0  0  0  0  0  0
   -0.3984   -2.2111   -1.3105 C   0  0  0  0  0  0  0  0  0  0  0  0
   -1.1358   -2.4546   -2.4767 C   0  0  0  0  0  0  0  0  0  0  0  0
    0.5434   -4.3519   -1.3615 C   0  0  0  0  0  0  0  0  0  0  0  0
    0.4087   -3.1472   -0.7869 C   0  0  0  0  0  0  0  0  0  0  0  0
    1.1726   -3.1359    0.3253 N   0  0  0  0  0  0  0  0  0  0  0  0
    2.6690   -0.8672    0.5153 C   0  0  0  0  0  0  0  0  0  0  0  0
    0.1719   -1.0144    1.4572 O   0  0  0  0  0  0  0  0  0  0  0  0
    1.9709   -2.3256    2.6832 O   0  0  0  0  0  0  0  0  0  0  0  0
    1.4320   -1.8486    1.3286 S   0  0  0  0  0  0  0  0  0  0  0  0
   -5.9856   -1.9886   -3.9065 C   0  0  0  0  0  0  0  0  0  0  0  0
   -5.0375   -1.7929   -4.9147 C   0  0  0  0  0  0  0  0  0  0  0  0
   -4.2345   -1.8405   -2.2727 C   0  0  0  0  0  0  0  0  0  0  0  0
   -5.5949   -2.0112   -2.5711 C   0  0  0  0  0  0  0  0  0  0  0  0
   -3.2695   -1.6717   -3.2708 C   0  0  0  0  0  0  0  0  0  0  0  0
   -3.6867   -1.6311   -4.5976 C   0  0  0  0  0  0  0  0  0  0  0  0
   -8.0570   -2.0270   -2.0075 C   0  0  0  0  0  0  0  0  0  0  0  0
   -6.5891   -2.2280   -1.5929 C   0  0  0  0  0  0  0  0  0  0  0  0
   -6.3105   -2.4571   -0.4020 O   0  0  0  0  0  0  0  0  0  0  0  0
   -2.6970   -1.4260   -5.5189 O   0  0  0  0  0  0  0  0  0  0  0  0
   -2.2956   -3.5748   -6.5207 C   0  0  0  0  0  0  0  0  0  0  0  0
   -2.8451   -2.1689   -6.7233 C   0  0  0  0  0  0  0  0  0  0  0  0
 26 27  1  0  0  0
 27 25  1  0  0  0
 17 16  2  0  0  0
 17 21  1  0  0  0
 25 21  1  0  0  0
 16 19  1  0  0  0
 21 20  2  0  0  0
 24 23  2  0  0  0
 19 23  1  0  0  0
 19 18  2  0  0  0
 20 18  1  0  0  0
 20  1  1  0  0  0
 23 22  1  0  0  0
  3  4  2  0  0  0
  3  8  1  0  0  0
  1  8  1  0  0  0
  4  9  1  0  0  0
  8  7  2  0  0  0
  9  5  1  0  0  0
  9 10  2  0  0  0
  7 10  1  0  0  0
  5  6  2  0  0  0
 10 11  1  0  0  0
  6 11  1  0  0  0
 11 15  1  0  0  0
 12 15  1  0  0  0
 15 13  2  0  0  0
 15 14  2  0  0  0
  1  2  1  0  0  0
M  END
> <minimizedAffinity>
-7.50145

$$$$
5MMG_UT0_A_1201


 27 29  0  0  0  0  0  0  0  0999 V2000
   -0.1839   -1.6993   -2.0554 N   0  0  0  0  0  0  0  0  0  0  0  0
    0.4636   -1.1555   -2.5596 H   0  0  0  0  0  0  0  0  0  0  0  0
   -2.5063   -1.2364   -1.5184 C   0  0  0  0  0  0  0  0  0  0  0  0
   -3.8389   -1.1837   -1.9568 C   0  0  0  0  0  0  0  0  0  0  0  0
   -5.3108   -1.5352   -3.8830 C   0  0  0  0  0  0  0  0  0  0  0  0
   -5.0803   -1.8982   -5.1484 C   0  0  0  0  0  0  0  0  0  0  0  0
   -1.8930   -1.9342   -3.7131 C   0  0  0  0  0  0  0  0  0  0  0  0
   -1.5012   -1.6263   -2.4035 C   0  0  0  0  0  0  0  0  0  0  0  0
   -4.1405   -1.5014   -3.2291 C   0  0  0  0  0  0  0  0  0  0  0  0
   -3.1795   -1.8680   -4.0904 C   0  0  0  0  0  0  0  0  0  0  0  0
   -3.7712   -2.1457   -5.2709 N   0  0  0  0  0  0  0  0  0  0  0  0
   -2.4708   -4.2198   -6.4663 C   0  0  0  0  0  0  0  0  0  0  0  0
   -3.9912   -2.5044   -7.8411 O   0  0  0  0  0  0  0  0  0  0  0  0
   -1.7915   -1.6395   -6.9072 O   0  0  0  0  0  0  0  0  0  0  0  0
   -3.0115   -2.5421   -6.6840 S   0  0  0  0  0  0  0  0  0  0  0  0
    1.3127   -4.0561    1.0525 C   0  0  0  0  0  0  0  0  0  0  0  0
    1.0942   -2.6870    1.2298 C   0  0  0  0  0  0  0  0  0  0  0  0
    0.5345   -3.8570   -1.2085 C   0  0  0  0  0  0  0  0  0  0  0  0
    1.0383   -4.6574   -0.1720 C   0  0  0  0  0  0  0  0  0  0  0  0
    0.2836   -2.4916   -1.0392 C   0  0  0  0  0  0  0  0  0  0  0  0
    0.5860   -1.9082    0.1874 C   0  0  0  0  0  0  0  0  0  0  0  0
    1.8056   -6.7939    0.9357 C   0  0  0  0  0  0  0  0  0  0  0  0
    1.2615   -6.0459   -0.2938 C   0  0  0  0  0  0  0  0  0  0  0  0
    1.1446   -6.6449   -1.3782 O   0  0  0  0  0  0  0  0  0  0  0  0
    0.3515   -0.5635    0.2723 O   0  0  0  0  0  0  0  0  0  0  0  0
    1.1345    1.7029    0.4524 C   0  0  0  0  0  0  0  0  0  0  0  0
    1.5138    0.2284    0.4877 C   0  0  0  0  0  0  0  0  0  0  0  0
 26 27  1  0  0  0
 27 25  1  0  0  0
 17 16  2  0  0  0
 17 21  1  0  0  0
 25 21  1  0  0  0
 16 19  1  0  0  0
 21 20  2  0  0  0
 24 23  2  0  0  0
 19 23  1  0  0  0
 19 18  2  0  0  0
 20 18  1  0  0  0
 20  1  1  0  0  0
 23 22  1  0  0  0
  3  4  2  0  0  0
  3  8  1  0  0  0
  1  8  1  0  0  0
  4  9  1  0  0  0
  8  7  2  0  0  0
  9  5  1  0  0  0
  9 10  2  0  0  0
  7 10  1  0  0  0
  5  6  2  0  0  0
 10 11  1  0  0  0
  6 11  1  0  0  0
 11 15  1  0  0  0
 12 15  1  0  0  0
 15 13  2  0  0  0
 15 14  2  0  0  0
  1  2  1  0  0  0
M  END
> <minimizedAffinity>
-7.16703

$$$$
5MMG_UT0_A_1201


 27 29  0  0  0  0  0  0  0  0999 V2000
   -1.8452   -1.8337   -6.3724 N   0  0  0  0  0  0  0  0  0  0  0  0
   -1.5530   -0.9511   -6.6961 H   0  0  0  0  0  0  0  0  0  0  0  0
   -3.5035   -2.3474   -8.0701 C   0  0  0  0  0  0  0  0  0  0  0  0
   -4.0343   -3.2897   -8.9651 C   0  0  0  0  0  0  0  0  0  0  0  0
   -3.8075   -5.5807   -9.8019 C   0  0  0  0  0  0  0  0  0  0  0  0
   -2.9488   -6.5675   -9.5273 C   0  0  0  0  0  0  0  0  0  0  0  0
   -1.9050   -3.9877   -7.4119 C   0  0  0  0  0  0  0  0  0  0  0  0
   -2.4193   -2.6929   -7.2635 C   0  0  0  0  0  0  0  0  0  0  0  0
   -3.4915   -4.5183   -9.0471 C   0  0  0  0  0  0  0  0  0  0  0  0
   -2.4424   -4.8567   -8.2825 C   0  0  0  0  0  0  0  0  0  0  0  0
   -2.1302   -6.1398   -8.5595 N   0  0  0  0  0  0  0  0  0  0  0  0
   -0.7746   -8.4723   -8.9388 C   0  0  0  0  0  0  0  0  0  0  0  0
    0.4420   -6.2236   -8.1593 O   0  0  0  0  0  0  0  0  0  0  0  0
   -1.0967   -7.3677   -6.4914 O   0  0  0  0  0  0  0  0  0  0  0  0
   -0.8492   -6.9934   -7.9582 S   0  0  0  0  0  0  0  0  0  0  0  0
   -1.2848   -2.6707   -2.3179 C   0  0  0  0  0  0  0  0  0  0  0  0
   -2.4666   -2.0793   -2.7730 C   0  0  0  0  0  0  0  0  0  0  0  0
   -0.4675   -2.7027   -4.5736 C   0  0  0  0  0  0  0  0  0  0  0  0
   -0.2682   -2.9866   -3.2141 C   0  0  0  0  0  0  0  0  0  0  0  0
   -1.6549   -2.1372   -5.0492 C   0  0  0  0  0  0  0  0  0  0  0  0
   -2.6486   -1.8102   -4.1317 C   0  0  0  0  0  0  0  0  0  0  0  0
    1.0026   -3.7826   -1.1815 C   0  0  0  0  0  0  0  0  0  0  0  0
    0.8983   -3.5970   -2.7052 C   0  0  0  0  0  0  0  0  0  0  0  0
    1.8721   -3.8751   -3.4284 O   0  0  0  0  0  0  0  0  0  0  0  0
   -3.7671   -1.2267   -4.6597 O   0  0  0  0  0  0  0  0  0  0  0  0
   -6.1075   -1.4203   -4.1432 C   0  0  0  0  0  0  0  0  0  0  0  0
   -4.7576   -0.8700   -3.7025 C   0  0  0  0  0  0  0  0  0  0  0  0
 26 27  1  0  0  0
 27 25  1  0  0  0
 17 16  2  0  0  0
 17 21  1  0  0  0
 25 21  1  0  0  0
 16 19  1  0  0  0
 21 20  2  0  0  0
 24 23  2  0  0  0
 19 23  1  0  0  0
 19 18  2  0  0  0
 20 18  1  0  0  0
 20  1  1  0  0  0
 23 22  1  0  0  0
  3  4  2  0  0  0
  3  8  1  0  0  0
  1  8  1  0  0  0
  4  9  1  0  0  0
  8  7  2  0  0  0
  9  5  1  0  0  0
  9 10  2  0  0  0
  7 10  1  0  0  0
  5  6  2  0  0  0
 10 11  1  0  0  0
  6 11  1  0  0  0
 11 15  1  0  0  0
 12 15  1  0  0  0
 15 13  2  0  0  0
 15 14  2  0  0  0
  1  2  1  0  0  0
M  END
> <minimizedAffinity>
-6.74615

$$$$
5MMG_UT0_A_1201


 27 29  0  0  0  0  0  0  0  0999 V2000
   -0.0497   -3.3907   -3.8341 N   0  0  0  0  0  0  0  0  0  0  0  0
    0.7122   -2.9510   -4.2764 H   0  0  0  0  0  0  0  0  0  0  0  0
   -0.3124   -5.5623   -2.7801 C   0  0  0  0  0  0  0  0  0  0  0  0
    0.0039   -6.4060   -1.7037 C   0  0  0  0  0  0  0  0  0  0  0  0
    1.2563   -6.5615    0.3958 C   0  0  0  0  0  0  0  0  0  0  0  0
    2.0580   -5.7086    1.0409 C   0  0  0  0  0  0  0  0  0  0  0  0
    1.0473   -3.8878   -1.7669 C   0  0  0  0  0  0  0  0  0  0  0  0
    0.2076   -4.2687   -2.8219 C   0  0  0  0  0  0  0  0  0  0  0  0
    0.8124   -5.9674   -0.7214 C   0  0  0  0  0  0  0  0  0  0  0  0
    1.3253   -4.7283   -0.7578 C   0  0  0  0  0  0  0  0  0  0  0  0
    2.0705   -4.5603    0.3545 N   0  0  0  0  0  0  0  0  0  0  0  0
    3.7829   -3.6523    2.2689 C   0  0  0  0  0  0  0  0  0  0  0  0
    4.0742   -3.0375   -0.3159 O   0  0  0  0  0  0  0  0  0  0  0  0
    2.1109   -2.0057    0.9248 O   0  0  0  0  0  0  0  0  0  0  0  0
    2.9956   -3.2435    0.7302 S   0  0  0  0  0  0  0  0  0  0  0  0
   -3.8708   -2.4419   -5.2314 C   0  0  0  0  0  0  0  0  0  0  0  0
   -3.0093   -3.2451   -5.9839 C   0  0  0  0  0  0  0  0  0  0  0  0
   -2.1789   -2.2646   -3.5392 C   0  0  0  0  0  0  0  0  0  0  0  0
   -3.4636   -1.9385   -3.9996 C   0  0  0  0  0  0  0  0  0  0  0  0
   -1.3152   -3.0897   -4.2665 C   0  0  0  0  0  0  0  0  0  0  0  0
   -1.7362   -3.5637   -5.5052 C   0  0  0  0  0  0  0  0  0  0  0  0
   -5.7412   -0.8493   -3.9200 C   0  0  0  0  0  0  0  0  0  0  0  0
   -4.3775   -1.1457   -3.2724 C   0  0  0  0  0  0  0  0  0  0  0  0
   -4.0720   -0.5958   -2.1988 O   0  0  0  0  0  0  0  0  0  0  0  0
   -0.8286   -4.3334   -6.1792 O   0  0  0  0  0  0  0  0  0  0  0  0
   -1.7644   -6.5427   -6.0189 C   0  0  0  0  0  0  0  0  0  0  0  0
   -1.3988   -5.3893   -6.9438 C   0  0  0  0  0  0  0  0  0  0  0  0
 26 27  1  0  0  0
 27 25  1  0  0  0
 17 16  2  0  0  0
 17 21  1  0  0  0
 25 21  1  0  0  0
 16 19  1  0  0  0
 21 20  2  0  0  0
 24 23  2  0  0  0
 19 23  1  0  0  0
 19 18  2  0  0  0
 20 18  1  0  0  0
 20  1  1  0  0  0
 23 22  1  0  0  0
  3  4  2  0  0  0
  3  8  1  0  0  0
  1  8  1  0  0  0
  4  9  1  0  0  0
  8  7  2  0  0  0
  9  5  1  0  0  0
  9 10  2  0  0  0
  7 10  1  0  0  0
  5  6  2  0  0  0
 10 11  1  0  0  0
  6 11  1  0  0  0
 11 15  1  0  0  0
 12 15  1  0  0  0
 15 13  2  0  0  0
 15 14  2  0  0  0
  1  2  1  0  0  0
M  END
> <minimizedAffinity>
-6.61002

$$$$
5MMG_UT0_A_1201


 27 29  0  0  0  0  0  0  0  0999 V2000
   -1.2013   -3.0537   -2.9329 N   0  0  0  0  0  0  0  0  0  0  0  0
   -1.7690   -3.8580   -2.9220 H   0  0  0  0  0  0  0  0  0  0  0  0
   -0.7864   -1.4416   -1.1651 C   0  0  0  0  0  0  0  0  0  0  0  0
   -0.1161   -1.1354    0.0297 C   0  0  0  0  0  0  0  0  0  0  0  0
    1.4584   -1.9929    1.6988 C   0  0  0  0  0  0  0  0  0  0  0  0
    2.0953   -3.1604    1.8317 C   0  0  0  0  0  0  0  0  0  0  0  0
    0.2847   -3.5701   -1.1304 C   0  0  0  0  0  0  0  0  0  0  0  0
   -0.5851   -2.6802   -1.7742 C   0  0  0  0  0  0  0  0  0  0  0  0
    0.7111   -2.0392    0.5864 C   0  0  0  0  0  0  0  0  0  0  0  0
    0.9035   -3.2368    0.0132 C   0  0  0  0  0  0  0  0  0  0  0  0
    1.7890   -3.9165    0.7713 N   0  0  0  0  0  0  0  0  0  0  0  0
    3.4960   -5.7674    1.8116 C   0  0  0  0  0  0  0  0  0  0  0  0
    1.1236   -6.4345    0.7768 O   0  0  0  0  0  0  0  0  0  0  0  0
    2.9282   -5.6462   -0.8297 O   0  0  0  0  0  0  0  0  0  0  0  0
    2.2794   -5.4790    0.5501 S   0  0  0  0  0  0  0  0  0  0  0  0
   -0.8662   -1.0115   -6.5620 C   0  0  0  0  0  0  0  0  0  0  0  0
   -2.1053   -1.1600   -5.9326 C   0  0  0  0  0  0  0  0  0  0  0  0
    0.1576   -2.2326   -4.7681 C   0  0  0  0  0  0  0  0  0  0  0  0
    0.2812   -1.5501   -5.9878 C   0  0  0  0  0  0  0  0  0  0  0  0
   -1.0699   -2.3659   -4.1114 C   0  0  0  0  0  0  0  0  0  0  0  0
   -2.2068   -1.8377   -4.7153 C   0  0  0  0  0  0  0  0  0  0  0  0
    2.5212   -0.3836   -6.0285 C   0  0  0  0  0  0  0  0  0  0  0  0
    1.5098   -1.3583   -6.6559 C   0  0  0  0  0  0  0  0  0  0  0  0
    1.7428   -1.8544   -7.7731 O   0  0  0  0  0  0  0  0  0  0  0  0
   -3.3781   -2.0361   -4.0379 O   0  0  0  0  0  0  0  0  0  0  0  0
   -5.5760   -1.0679   -4.1561 C   0  0  0  0  0  0  0  0  0  0  0  0
   -4.5488   -1.9583   -4.8428 C   0  0  0  0  0  0  0  0  0  0  0  0
 26 27  1  0  0  0
 27 25  1  0  0  0
 17 16  2  0  0  0
 17 21  1  0  0  0
 25 21  1  0  0  0
 16 19  1  0  0  0
 21 20  2  0  0  0
 24 23  2  0  0  0
 19 23  1  0  0  0
 19 18  2  0  0  0
 20 18  1  0  0  0
 20  1  1  0  0  0
 23 22  1  0  0  0
  3  4  2  0  0  0
  3  8  1  0  0  0
  1  8  1  0  0  0
  4  9  1  0  0  0
  8  7  2  0  0  0
  9  5  1  0  0  0
  9 10  2  0  0  0
  7 10  1  0  0  0
  5  6  2  0  0  0
 10 11  1  0  0  0
  6 11  1  0  0  0
 11 15  1  0  0  0
 12 15  1  0  0  0
 15 13  2  0  0  0
 15 14  2  0  0  0
  1  2  1  0  0  0
M  END
> <minimizedAffinity>
-6.54851

$$$$
5MMG_UT0_A_1201


 27 29  0  0  0  0  0  0  0  0999 V2000
   -1.2945   -2.7040   -4.3107 N   0  0  0  0  0  0  0  0  0  0  0  0
   -0.6481   -3.2607   -3.8193 H   0  0  0  0  0  0  0  0  0  0  0  0
   -0.5138   -1.3951   -6.2011 C   0  0  0  0  0  0  0  0  0  0  0  0
   -0.3589   -1.2940   -7.5926 C   0  0  0  0  0  0  0  0  0  0  0  0
   -0.7527   -2.4381   -9.7226 C   0  0  0  0  0  0  0  0  0  0  0  0
   -1.2779   -3.6277  -10.0315 C   0  0  0  0  0  0  0  0  0  0  0  0
   -1.5162   -3.5296   -6.5453 C   0  0  0  0  0  0  0  0  0  0  0  0
   -1.1113   -2.5294   -5.6515 C   0  0  0  0  0  0  0  0  0  0  0  0
   -0.7797   -2.2933   -8.3897 C   0  0  0  0  0  0  0  0  0  0  0  0
   -1.3466   -3.3925   -7.8698 C   0  0  0  0  0  0  0  0  0  0  0  0
   -1.6846   -4.2030   -8.8942 N   0  0  0  0  0  0  0  0  0  0  0  0
   -2.4125   -6.3182  -10.4492 C   0  0  0  0  0  0  0  0  0  0  0  0
   -1.3833   -6.6314   -8.0024 O   0  0  0  0  0  0  0  0  0  0  0  0
   -3.7299   -5.6716   -8.1777 O   0  0  0  0  0  0  0  0  0  0  0  0
   -2.3193   -5.7244   -8.7780 S   0  0  0  0  0  0  0  0  0  0  0  0
   -4.4392   -1.0506   -2.1129 C   0  0  0  0  0  0  0  0  0  0  0  0
   -3.1405   -1.0817   -1.5973 C   0  0  0  0  0  0  0  0  0  0  0  0
   -3.6431   -2.1298   -4.1026 C   0  0  0  0  0  0  0  0  0  0  0  0
   -4.7068   -1.5784   -3.3724 C   0  0  0  0  0  0  0  0  0  0  0  0
   -2.3330   -2.1436   -3.6133 C   0  0  0  0  0  0  0  0  0  0  0  0
   -2.0935   -1.6295   -2.3426 C   0  0  0  0  0  0  0  0  0  0  0  0
   -7.1644   -1.9098   -2.8924 C   0  0  0  0  0  0  0  0  0  0  0  0
   -6.0321   -1.5076   -3.8531 C   0  0  0  0  0  0  0  0  0  0  0  0
   -6.2946   -1.2478   -5.0414 O   0  0  0  0  0  0  0  0  0  0  0  0
   -0.7981   -1.7084   -1.9113 O   0  0  0  0  0  0  0  0  0  0  0  0
    0.4106   -1.8818    0.1602 C   0  0  0  0  0  0  0  0  0  0  0  0
   -0.5415   -1.0418   -0.6807 C   0  0  0  0  0  0  0  0  0  0  0  0
 26 27  1  0  0  0
 27 25  1  0  0  0
 17 16  2  0  0  0
 17 21  1  0  0  0
 25 21  1  0  0  0
 16 19  1  0  0  0
 21 20  2  0  0  0
 24 23  2  0  0  0
 19 23  1  0  0  0
 19 18  2  0  0  0
 20 18  1  0  0  0
 20  1  1  0  0  0
 23 22  1  0  0  0
  3  4  2  0  0  0
  3  8  1  0  0  0
  1  8  1  0  0  0
  4  9  1  0  0  0
  8  7  2  0  0  0
  9  5  1  0  0  0
  9 10  2  0  0  0
  7 10  1  0  0  0
  5  6  2  0  0  0
 10 11  1  0  0  0
  6 11  1  0  0  0
 11 15  1  0  0  0
 12 15  1  0  0  0
 15 13  2  0  0  0
 15 14  2  0  0  0
  1  2  1  0  0  0
M  END
> <minimizedAffinity>
-6.51905

$$$$
5MMG_UT0_A_1201


 27 29  0  0  0  0  0  0  0  0999 V2000
   -1.6593   -2.1714   -6.9494 N   0  0  0  0  0  0  0  0  0  0  0  0
   -1.0527   -1.5156   -7.3633 H   0  0  0  0  0  0  0  0  0  0  0  0
   -3.5068   -2.7500   -8.4150 C   0  0  0  0  0  0  0  0  0  0  0  0
   -4.1141   -3.7122   -9.2372 C   0  0  0  0  0  0  0  0  0  0  0  0
   -3.9099   -5.9917  -10.1105 C   0  0  0  0  0  0  0  0  0  0  0  0
   -2.9839   -6.9435   -9.9583 C   0  0  0  0  0  0  0  0  0  0  0  0
   -1.7712   -4.3254   -7.9847 C   0  0  0  0  0  0  0  0  0  0  0  0
   -2.3122   -3.0523   -7.7615 C   0  0  0  0  0  0  0  0  0  0  0  0
   -3.5387   -4.9180   -9.3980 C   0  0  0  0  0  0  0  0  0  0  0  0
   -2.3847   -5.2146   -8.7815 C   0  0  0  0  0  0  0  0  0  0  0  0
   -2.0614   -6.4840   -9.1052 N   0  0  0  0  0  0  0  0  0  0  0  0
   -0.8370   -8.8982   -9.4125 C   0  0  0  0  0  0  0  0  0  0  0  0
    0.5334   -6.6066   -9.2915 O   0  0  0  0  0  0  0  0  0  0  0  0
   -0.5832   -7.4236   -7.1597 O   0  0  0  0  0  0  0  0  0  0  0  0
   -0.6791   -7.2859   -8.6844 S   0  0  0  0  0  0  0  0  0  0  0  0
   -2.0778   -2.2052   -2.7929 C   0  0  0  0  0  0  0  0  0  0  0  0
   -0.8852   -2.6111   -3.3985 C   0  0  0  0  0  0  0  0  0  0  0  0
   -3.0006   -1.7772   -4.9660 C   0  0  0  0  0  0  0  0  0  0  0  0
   -3.1525   -1.7861   -3.5711 C   0  0  0  0  0  0  0  0  0  0  0  0
   -1.8051   -2.1533   -5.5865 C   0  0  0  0  0  0  0  0  0  0  0  0
   -0.7515   -2.5890   -4.7888 C   0  0  0  0  0  0  0  0  0  0  0  0
   -5.6372   -1.3565   -3.7180 C   0  0  0  0  0  0  0  0  0  0  0  0
   -4.3284   -1.3715   -2.9095 C   0  0  0  0  0  0  0  0  0  0  0  0
   -4.3136   -0.9164   -1.7514 O   0  0  0  0  0  0  0  0  0  0  0  0
    0.3739   -2.9769   -5.4621 O   0  0  0  0  0  0  0  0  0  0  0  0
    1.7312   -1.0848   -6.0620 C   0  0  0  0  0  0  0  0  0  0  0  0
    1.5517   -2.2602   -5.1102 C   0  0  0  0  0  0  0  0  0  0  0  0
 26 27  1  0  0  0
 27 25  1  0  0  0
 17 16  2  0  0  0
 17 21  1  0  0  0
 25 21  1  0  0  0
 16 19  1  0  0  0
 21 20  2  0  0  0
 24 23  2  0  0  0
 19 23  1  0  0  0
 19 18  2  0  0  0
 20 18  1  0  0  0
 20  1  1  0  0  0
 23 22  1  0  0  0
  3  4  2  0  0  0
  3  8  1  0  0  0
  1  8  1  0  0  0
  4  9  1  0  0  0
  8  7  2  0  0  0
  9  5  1  0  0  0
  9 10  2  0  0  0
  7 10  1  0  0  0
  5  6  2  0  0  0
 10 11  1  0  0  0
  6 11  1  0  0  0
 11 15  1  0  0  0
 12 15  1  0  0  0
 15 13  2  0  0  0
 15 14  2  0  0  0
  1  2  1  0  0  0
M  END
> <minimizedAffinity>
-6.48778

$$$$
