4Y0A_SKM_A_201


 16 16  0  0  0  0  0  0  0  0999 V2000
    3.3355   10.3881   20.1824 O   0  0  0  0  0  0  0  0  0  0  0  0
    4.6054   10.9763   20.4868 C   0  0  0  0  0  0  0  0  0  0  0  0
    5.4774   10.1489   21.2148 C   0  0  0  0  0  0  0  0  0  0  0  0
    6.7323   10.8274   21.4858 O   0  0  0  0  0  0  0  0  0  0  0  0
    5.8696    8.7919   20.4601 C   0  0  0  0  0  0  0  0  0  0  0  0
    6.0991    8.9287   18.9836 C   0  0  0  0  0  0  0  0  0  0  0  0
    5.8450   10.2720   18.3135 C   0  0  0  0  0  0  0  0  0  0  0  0
    5.3151   11.3883   19.0113 C   0  0  0  0  0  0  0  0  0  0  0  0
    4.3205   12.0412   18.1592 O   0  0  0  0  0  0  0  0  0  0  0  0
    2.8906   10.1350   21.0063 H   0  0  0  0  0  0  0  0  0  0  0  0
    7.1855   11.0153   20.6491 H   0  0  0  0  0  0  0  0  0  0  0  0
    3.5968   11.4223   17.9745 H   0  0  0  0  0  0  0  0  0  0  0  0
    6.5835    7.8235   18.1557 C   0  0  0  0  0  0  0  0  0  0  0  0
    6.7733    6.7117   18.7496 O   0  0  0  0  0  0  0  0  0  0  0  0
    6.7330    7.9643   16.8928 O   0  0  0  0  0  0  0  0  0  0  0  0
    6.6534    6.6494   19.6768 H   0  0  0  0  0  0  0  0  0  0  0  0
  1  2  1  0  0  0
  2  3  1  0  0  0
  2  8  1  0  0  0
  3  4  1  0  0  0
  3  5  1  0  0  0
  5  6  1  0  0  0
  6 13  1  0  0  0
  6  7  2  0  0  0
 13 14  1  0  0  0
 13 15  2  0  0  0
  7  8  1  0  0  0
  8  9  1  0  0  0
  1 10  1  0  0  0
  4 11  1  0  0  0
 14 16  1  0  0  0
  9 12  1  0  0  0
M  END
> <minimizedAffinity>
-6.72566

$$$$
4Y0A_SKM_A_201


 16 16  0  0  0  0  0  0  0  0999 V2000
    4.1439   12.4502   20.4366 O   0  0  0  0  0  0  0  0  0  0  0  0
    5.4239   12.3319   19.8050 C   0  0  0  0  0  0  0  0  0  0  0  0
    6.3512   11.5366   20.4997 C   0  0  0  0  0  0  0  0  0  0  0  0
    7.6191   11.4805   19.7941 O   0  0  0  0  0  0  0  0  0  0  0  0
    5.8905   10.0146   20.6900 C   0  0  0  0  0  0  0  0  0  0  0  0
    5.1910    9.4093   19.5086 C   0  0  0  0  0  0  0  0  0  0  0  0
    4.8815   10.2828   18.3007 C   0  0  0  0  0  0  0  0  0  0  0  0
    5.1501   11.6760   18.2736 C   0  0  0  0  0  0  0  0  0  0  0  0
    4.0154   12.3572   17.6490 O   0  0  0  0  0  0  0  0  0  0  0  0
    4.2548   12.8251   21.3243 H   0  0  0  0  0  0  0  0  0  0  0  0
    7.4924   11.0473   18.9355 H   0  0  0  0  0  0  0  0  0  0  0  0
    3.2170   12.2083   18.1794 H   0  0  0  0  0  0  0  0  0  0  0  0
    4.8105    7.9971   19.4566 C   0  0  0  0  0  0  0  0  0  0  0  0
    5.7615    7.1587   19.3249 O   0  0  0  0  0  0  0  0  0  0  0  0
    3.5919    7.6383   19.6097 O   0  0  0  0  0  0  0  0  0  0  0  0
    6.6413    7.4617   19.2148 H   0  0  0  0  0  0  0  0  0  0  0  0
  1  2  1  0  0  0
  2  3  1  0  0  0
  2  8  1  0  0  0
  3  4  1  0  0  0
  3  5  1  0  0  0
  5  6  1  0  0  0
  6 13  1  0  0  0
  6  7  2  0  0  0
 13 14  1  0  0  0
 13 15  2  0  0  0
  7  8  1  0  0  0
  8  9  1  0  0  0
  1 10  1  0  0  0
  4 11  1  0  0  0
 14 16  1  0  0  0
  9 12  1  0  0  0
M  END
> <minimizedAffinity>
-6.25690

$$$$
4Y0A_SKM_A_201


 16 16  0  0  0  0  0  0  0  0999 V2000
    5.6548    8.6778   17.6324 O   0  0  0  0  0  0  0  0  0  0  0  0
    5.9967    8.5560   19.0179 C   0  0  0  0  0  0  0  0  0  0  0  0
    7.0254    9.4117   19.4472 C   0  0  0  0  0  0  0  0  0  0  0  0
    7.3113    9.2140   20.8570 O   0  0  0  0  0  0  0  0  0  0  0  0
    6.6877   10.9688   19.2850 C   0  0  0  0  0  0  0  0  0  0  0  0
    5.2738   11.3503   19.6115 C   0  0  0  0  0  0  0  0  0  0  0  0
    4.2696   10.2582   19.9534 C   0  0  0  0  0  0  0  0  0  0  0  0
    4.5899    8.8770   19.8944 C   0  0  0  0  0  0  0  0  0  0  0  0
    3.4656    8.1634   19.2874 O   0  0  0  0  0  0  0  0  0  0  0  0
    6.4386    8.5004   17.0891 H   0  0  0  0  0  0  0  0  0  0  0  0
    6.5321    9.4556   21.3819 H   0  0  0  0  0  0  0  0  0  0  0  0
    3.3283    8.4860   18.3830 H   0  0  0  0  0  0  0  0  0  0  0  0
    4.8191   12.7411   19.6387 C   0  0  0  0  0  0  0  0  0  0  0  0
    4.2801   13.1819   18.5710 O   0  0  0  0  0  0  0  0  0  0  0  0
    4.9004   13.4387   20.7082 O   0  0  0  0  0  0  0  0  0  0  0  0
    4.2401   12.6395   17.8080 H   0  0  0  0  0  0  0  0  0  0  0  0
  1  2  1  0  0  0
  2  3  1  0  0  0
  2  8  1  0  0  0
  3  4  1  0  0  0
  3  5  1  0  0  0
  5  6  1  0  0  0
  6 13  1  0  0  0
  6  7  2  0  0  0
 13 14  1  0  0  0
 13 15  2  0  0  0
  7  8  1  0  0  0
  8  9  1  0  0  0
  1 10  1  0  0  0
  4 11  1  0  0  0
 14 16  1  0  0  0
  9 12  1  0  0  0
M  END
> <minimizedAffinity>
-6.13231

$$$$
4Y0A_SKM_A_201


 16 16  0  0  0  0  0  0  0  0999 V2000
    6.7936   12.2367   19.3591 O   0  0  0  0  0  0  0  0  0  0  0  0
    5.7649   11.5922   20.1192 C   0  0  0  0  0  0  0  0  0  0  0  0
    4.6902   11.1023   19.3576 C   0  0  0  0  0  0  0  0  0  0  0  0
    3.6939   10.4756   20.2078 O   0  0  0  0  0  0  0  0  0  0  0  0
    5.1070    9.9911   18.2823 C   0  0  0  0  0  0  0  0  0  0  0  0
    6.1420    9.0105   18.7496 C   0  0  0  0  0  0  0  0  0  0  0  0
    6.7796    9.1993   20.1192 C   0  0  0  0  0  0  0  0  0  0  0  0
    6.5001   10.3175   20.9469 C   0  0  0  0  0  0  0  0  0  0  0  0
    7.7541   10.7828   21.5408 O   0  0  0  0  0  0  0  0  0  0  0  0
    6.4131   12.9796   18.8650 H   0  0  0  0  0  0  0  0  0  0  0  0
    4.0820    9.7007   20.6436 H   0  0  0  0  0  0  0  0  0  0  0  0
    8.3598   11.0647   20.8376 H   0  0  0  0  0  0  0  0  0  0  0  0
    6.5525    7.8564   17.9487 C   0  0  0  0  0  0  0  0  0  0  0  0
    6.7016    8.0583   16.6990 O   0  0  0  0  0  0  0  0  0  0  0  0
    6.8133    6.7321   18.5009 O   0  0  0  0  0  0  0  0  0  0  0  0
    6.4995    8.8966   16.3325 H   0  0  0  0  0  0  0  0  0  0  0  0
  1  2  1  0  0  0
  2  3  1  0  0  0
  2  8  1  0  0  0
  3  4  1  0  0  0
  3  5  1  0  0  0
  5  6  1  0  0  0
  6 13  1  0  0  0
  6  7  2  0  0  0
 13 14  1  0  0  0
 13 15  2  0  0  0
  7  8  1  0  0  0
  8  9  1  0  0  0
  1 10  1  0  0  0
  4 11  1  0  0  0
 14 16  1  0  0  0
  9 12  1  0  0  0
M  END
> <minimizedAffinity>
-6.07079

$$$$
4Y0A_SKM_A_201


 16 16  0  0  0  0  0  0  0  0999 V2000
    4.0783   10.6804   18.1445 O   0  0  0  0  0  0  0  0  0  0  0  0
    4.0655    9.5412   19.0126 C   0  0  0  0  0  0  0  0  0  0  0  0
    5.0423    8.5724   18.7260 C   0  0  0  0  0  0  0  0  0  0  0  0
    4.9496    7.4531   19.6463 O   0  0  0  0  0  0  0  0  0  0  0  0
    6.5465    9.1096   18.8428 C   0  0  0  0  0  0  0  0  0  0  0  0
    6.8002   10.0466   19.9870 C   0  0  0  0  0  0  0  0  0  0  0  0
    5.6320   10.4911   20.8564 C   0  0  0  0  0  0  0  0  0  0  0  0
    4.2890   10.1245   20.5811 C   0  0  0  0  0  0  0  0  0  0  0  0
    3.4344   11.2937   20.7913 O   0  0  0  0  0  0  0  0  0  0  0  0
    3.9524   10.3898   17.2277 H   0  0  0  0  0  0  0  0  0  0  0  0
    5.1389    7.7588   20.5473 H   0  0  0  0  0  0  0  0  0  0  0  0
    3.6930   11.9979   20.1764 H   0  0  0  0  0  0  0  0  0  0  0  0
    8.1374   10.5382   20.3212 C   0  0  0  0  0  0  0  0  0  0  0  0
    8.7152   11.2532   19.4382 O   0  0  0  0  0  0  0  0  0  0  0  0
    8.6525   10.3132   21.4706 O   0  0  0  0  0  0  0  0  0  0  0  0
    8.3049   11.3944   18.6078 H   0  0  0  0  0  0  0  0  0  0  0  0
  1  2  1  0  0  0
  2  3  1  0  0  0
  2  8  1  0  0  0
  3  4  1  0  0  0
  3  5  1  0  0  0
  5  6  1  0  0  0
  6 13  1  0  0  0
  6  7  2  0  0  0
 13 14  1  0  0  0
 13 15  2  0  0  0
  7  8  1  0  0  0
  8  9  1  0  0  0
  1 10  1  0  0  0
  4 11  1  0  0  0
 14 16  1  0  0  0
  9 12  1  0  0  0
M  END
> <minimizedAffinity>
-5.99193

$$$$
4Y0A_SKM_A_201


 16 16  0  0  0  0  0  0  0  0999 V2000
    6.8191    8.1509   20.3872 O   0  0  0  0  0  0  0  0  0  0  0  0
    5.6253    7.9039   19.6355 C   0  0  0  0  0  0  0  0  0  0  0  0
    4.4592    8.4663   20.1821 C   0  0  0  0  0  0  0  0  0  0  0  0
    3.3006    8.1588   19.3627 O   0  0  0  0  0  0  0  0  0  0  0  0
    4.4991   10.0631   20.2991 C   0  0  0  0  0  0  0  0  0  0  0  0
    5.1453   10.7695   19.1438 C   0  0  0  0  0  0  0  0  0  0  0  0
    5.7915    9.9470   18.0374 C   0  0  0  0  0  0  0  0  0  0  0  0
    5.8867    8.5321   18.0903 C   0  0  0  0  0  0  0  0  0  0  0  0
    7.2161    8.1367   17.6235 O   0  0  0  0  0  0  0  0  0  0  0  0
    6.7123    7.8042   21.2868 H   0  0  0  0  0  0  0  0  0  0  0  0
    3.4048    8.5673   18.4891 H   0  0  0  0  0  0  0  0  0  0  0  0
    7.8901    8.5123   18.2112 H   0  0  0  0  0  0  0  0  0  0  0  0
    5.1615   12.2277   19.0209 C   0  0  0  0  0  0  0  0  0  0  0  0
    4.4154   12.7283   18.1168 O   0  0  0  0  0  0  0  0  0  0  0  0
    5.8380   12.9486   19.8332 O   0  0  0  0  0  0  0  0  0  0  0  0
    3.9356   12.1661   17.5409 H   0  0  0  0  0  0  0  0  0  0  0  0
  1  2  1  0  0  0
  2  3  1  0  0  0
  2  8  1  0  0  0
  3  4  1  0  0  0
  3  5  1  0  0  0
  5  6  1  0  0  0
  6 13  1  0  0  0
  6  7  2  0  0  0
 13 14  1  0  0  0
 13 15  2  0  0  0
  7  8  1  0  0  0
  8  9  1  0  0  0
  1 10  1  0  0  0
  4 11  1  0  0  0
 14 16  1  0  0  0
  9 12  1  0  0  0
M  END
> <minimizedAffinity>
-5.92688

$$$$
4Y0A_SKM_A_201


 16 16  0  0  0  0  0  0  0  0999 V2000
    6.2029    7.6742   18.2445 O   0  0  0  0  0  0  0  0  0  0  0  0
    6.1624    8.1816   19.5833 C   0  0  0  0  0  0  0  0  0  0  0  0
    6.9568    9.3194   19.8053 C   0  0  0  0  0  0  0  0  0  0  0  0
    6.8625    9.7575   21.1864 O   0  0  0  0  0  0  0  0  0  0  0  0
    6.5431   10.5861   18.9169 C   0  0  0  0  0  0  0  0  0  0  0  0
    5.0663   10.7835   18.7395 C   0  0  0  0  0  0  0  0  0  0  0  0
    4.1051    9.7448   19.3008 C   0  0  0  0  0  0  0  0  0  0  0  0
    4.5474    8.5446   19.9155 C   0  0  0  0  0  0  0  0  0  0  0  0
    3.6977    7.4453   19.4561 O   0  0  0  0  0  0  0  0  0  0  0  0
    7.1175    7.4515   18.0107 H   0  0  0  0  0  0  0  0  0  0  0  0
    5.9518   10.0314   21.3773 H   0  0  0  0  0  0  0  0  0  0  0  0
    3.7854    7.3488   18.4949 H   0  0  0  0  0  0  0  0  0  0  0  0
    4.5032   11.9536   18.0645 C   0  0  0  0  0  0  0  0  0  0  0  0
    3.7776   11.7231   17.0422 O   0  0  0  0  0  0  0  0  0  0  0  0
    4.6807   13.1313   18.5321 O   0  0  0  0  0  0  0  0  0  0  0  0
    3.6725   10.8458   16.7304 H   0  0  0  0  0  0  0  0  0  0  0  0
  1  2  1  0  0  0
  2  3  1  0  0  0
  2  8  1  0  0  0
  3  4  1  0  0  0
  3  5  1  0  0  0
  5  6  1  0  0  0
  6 13  1  0  0  0
  6  7  2  0  0  0
 13 14  1  0  0  0
 13 15  2  0  0  0
  7  8  1  0  0  0
  8  9  1  0  0  0
  1 10  1  0  0  0
  4 11  1  0  0  0
 14 16  1  0  0  0
  9 12  1  0  0  0
M  END
> <minimizedAffinity>
-5.68526

$$$$
4Y0A_SKM_A_201


 16 16  0  0  0  0  0  0  0  0999 V2000
    5.4710    9.9665   21.7825 O   0  0  0  0  0  0  0  0  0  0  0  0
    5.8476    8.9623   20.8333 C   0  0  0  0  0  0  0  0  0  0  0  0
    4.7769    8.3936   20.1227 C   0  0  0  0  0  0  0  0  0  0  0  0
    5.2487    7.3827   19.1932 O   0  0  0  0  0  0  0  0  0  0  0  0
    3.9491    9.4438   19.2414 C   0  0  0  0  0  0  0  0  0  0  0  0
    4.7775   10.4859   18.5493 C   0  0  0  0  0  0  0  0  0  0  0  0
    6.2764   10.5382   18.8113 C   0  0  0  0  0  0  0  0  0  0  0  0
    6.9195    9.6938   19.7533 C   0  0  0  0  0  0  0  0  0  0  0  0
    7.8959   10.4877   20.5003 O   0  0  0  0  0  0  0  0  0  0  0  0
    4.8519    9.5874   22.4259 H   0  0  0  0  0  0  0  0  0  0  0  0
    5.8167    7.7976   18.5253 H   0  0  0  0  0  0  0  0  0  0  0  0
    7.4376   11.1934   20.9827 H   0  0  0  0  0  0  0  0  0  0  0  0
    4.2062   11.4486   17.6066 C   0  0  0  0  0  0  0  0  0  0  0  0
    4.2013   12.6686   17.9761 O   0  0  0  0  0  0  0  0  0  0  0  0
    3.8049   11.0774   16.4498 O   0  0  0  0  0  0  0  0  0  0  0  0
    4.5035   12.9000   18.8322 H   0  0  0  0  0  0  0  0  0  0  0  0
  1  2  1  0  0  0
  2  3  1  0  0  0
  2  8  1  0  0  0
  3  4  1  0  0  0
  3  5  1  0  0  0
  5  6  1  0  0  0
  6 13  1  0  0  0
  6  7  2  0  0  0
 13 14  1  0  0  0
 13 15  2  0  0  0
  7  8  1  0  0  0
  8  9  1  0  0  0
  1 10  1  0  0  0
  4 11  1  0  0  0
 14 16  1  0  0  0
  9 12  1  0  0  0
M  END
> <minimizedAffinity>
-5.63590

$$$$
4Y0A_SKM_A_201


 16 16  0  0  0  0  0  0  0  0999 V2000
    5.8287    8.8256   21.1502 O   0  0  0  0  0  0  0  0  0  0  0  0
    6.3732    8.8832   19.8268 C   0  0  0  0  0  0  0  0  0  0  0  0
    5.4202    9.0323   18.8047 C   0  0  0  0  0  0  0  0  0  0  0  0
    6.0584    9.0717   17.5011 O   0  0  0  0  0  0  0  0  0  0  0  0
    4.5582   10.3779   18.9091 C   0  0  0  0  0  0  0  0  0  0  0  0
    5.3263   11.5938   19.3367 C   0  0  0  0  0  0  0  0  0  0  0  0
    6.7890   11.4473   19.7331 C   0  0  0  0  0  0  0  0  0  0  0  0
    7.4426   10.1894   19.7991 C   0  0  0  0  0  0  0  0  0  0  0  0
    8.2767   10.1601   21.0012 O   0  0  0  0  0  0  0  0  0  0  0  0
    5.2053    8.0850   21.2114 H   0  0  0  0  0  0  0  0  0  0  0  0
    6.6294    9.8538   17.4441 H   0  0  0  0  0  0  0  0  0  0  0  0
    7.7156   10.2565   21.7865 H   0  0  0  0  0  0  0  0  0  0  0  0
    4.7321   12.9309   19.3675 C   0  0  0  0  0  0  0  0  0  0  0  0
    4.0950   13.2918   18.3241 O   0  0  0  0  0  0  0  0  0  0  0  0
    4.7969   13.6552   20.4202 O   0  0  0  0  0  0  0  0  0  0  0  0
    4.0713   12.7324   17.5728 H   0  0  0  0  0  0  0  0  0  0  0  0
  1  2  1  0  0  0
  2  3  1  0  0  0
  2  8  1  0  0  0
  3  4  1  0  0  0
  3  5  1  0  0  0
  5  6  1  0  0  0
  6 13  1  0  0  0
  6  7  2  0  0  0
 13 14  1  0  0  0
 13 15  2  0  0  0
  7  8  1  0  0  0
  8  9  1  0  0  0
  1 10  1  0  0  0
  4 11  1  0  0  0
 14 16  1  0  0  0
  9 12  1  0  0  0
M  END
> <minimizedAffinity>
-5.59934

$$$$
4Y0A_SKM_A_201


 16 16  0  0  0  0  0  0  0  0999 V2000
    6.0850   11.9244   19.8416 O   0  0  0  0  0  0  0  0  0  0  0  0
    4.8165   11.2847   19.6603 C   0  0  0  0  0  0  0  0  0  0  0  0
    4.5113   10.9502   18.3299 C   0  0  0  0  0  0  0  0  0  0  0  0
    3.2077   10.3171   18.2393 O   0  0  0  0  0  0  0  0  0  0  0  0
    5.5427    9.9220   17.6638 C   0  0  0  0  0  0  0  0  0  0  0  0
    6.0256    8.8284   18.5705 C   0  0  0  0  0  0  0  0  0  0  0  0
    5.6049    8.8363   20.0337 C   0  0  0  0  0  0  0  0  0  0  0  0
    4.8395    9.8858   20.6052 C   0  0  0  0  0  0  0  0  0  0  0  0
    5.3903   10.1993   21.9242 O   0  0  0  0  0  0  0  0  0  0  0  0
    6.1156   12.7375   19.3135 H   0  0  0  0  0  0  0  0  0  0  0  0
    3.2216    9.4775   18.7248 H   0  0  0  0  0  0  0  0  0  0  0  0
    6.3062   10.5039   21.8281 H   0  0  0  0  0  0  0  0  0  0  0  0
    6.8724    7.7313   18.1003 C   0  0  0  0  0  0  0  0  0  0  0  0
    6.7715    6.6278   18.7303 O   0  0  0  0  0  0  0  0  0  0  0  0
    7.6136    7.8692   17.0665 O   0  0  0  0  0  0  0  0  0  0  0  0
    6.2176    6.5674   19.4836 H   0  0  0  0  0  0  0  0  0  0  0  0
  1  2  1  0  0  0
  2  3  1  0  0  0
  2  8  1  0  0  0
  3  4  1  0  0  0
  3  5  1  0  0  0
  5  6  1  0  0  0
  6 13  1  0  0  0
  6  7  2  0  0  0
 13 14  1  0  0  0
 13 15  2  0  0  0
  7  8  1  0  0  0
  8  9  1  0  0  0
  1 10  1  0  0  0
  4 11  1  0  0  0
 14 16  1  0  0  0
  9 12  1  0  0  0
M  END
> <minimizedAffinity>
-5.44629

$$$$
