1E1V_CMG_A_401


 21 23  0  0  0  0  0  0  0  0999 V2000
   -1.2402   27.1945   12.1207 N   0  0  0  0  0  0  0  0  0  0  0  0
   -1.4268   26.4250   13.1861 C   0  0  0  0  0  0  0  0  0  0  0  0
   -1.1396   25.1125   13.0950 N   0  0  0  0  0  0  0  0  0  0  0  0
   -0.6629   24.5772   11.9777 C   0  0  0  0  0  0  0  0  0  0  0  0
   -0.5033   25.3741   10.8873 C   0  0  0  0  0  0  0  0  0  0  0  0
   -0.8113   26.7309   10.9464 C   0  0  0  0  0  0  0  0  0  0  0  0
   -0.0257   24.5280    9.9844 N   0  0  0  0  0  0  0  0  0  0  0  0
    0.0909   23.2188   10.3910 C   0  0  0  0  0  0  0  0  0  0  0  0
   -0.2882   23.3367   11.6845 N   0  0  0  0  0  0  0  0  0  0  0  0
   -1.8099   26.7452   14.4478 N   0  0  0  0  0  0  0  0  0  0  0  0
   -0.2867   22.5934   12.3301 H   0  0  0  0  0  0  0  0  0  0  0  0
   -2.0524   27.6736   14.6679 H   0  0  0  0  0  0  0  0  0  0  0  0
   -1.8454   26.0491   15.1430 H   0  0  0  0  0  0  0  0  0  0  0  0
   -0.5985   27.4922    9.7982 O   0  0  0  0  0  0  0  0  0  0  0  0
    0.7706   27.9943    9.8280 C   0  0  0  0  0  0  0  0  0  0  0  0
    1.0314   28.2588    8.2899 C   0  0  0  0  0  0  0  0  0  0  0  0
    0.9172   29.8086    8.0919 C   0  0  0  0  0  0  0  0  0  0  0  0
    1.4198   30.1119    6.6806 C   0  0  0  0  0  0  0  0  0  0  0  0
    2.9361   30.2078    6.9739 C   0  0  0  0  0  0  0  0  0  0  0  0
    3.1459   28.6351    6.9939 C   0  0  0  0  0  0  0  0  0  0  0  0
    2.5560   28.3646    8.4093 C   0  0  0  0  0  0  0  0  0  0  0  0
  1  2  2  0  0  0
  1  6  1  0  0  0
  2  3  1  0  0  0
  2 10  1  0  0  0
  3  4  2  0  0  0
  4  5  1  0  0  0
  4  9  1  0  0  0
  5  6  2  0  0  0
  5  7  1  0  0  0
  6 14  1  0  0  0
 14 15  1  0  0  0
 15 16  1  0  0  0
  7  8  2  0  0  0
  8  9  1  0  0  0
 16 17  1  0  0  0
 16 21  1  0  0  0
 17 18  1  0  0  0
 18 19  1  0  0  0
 19 20  1  0  0  0
 20 21  1  0  0  0
  9 11  1  0  0  0
 10 12  1  0  0  0
 10 13  1  0  0  0
M  END
> <minimizedAffinity>
-8.15784

$$$$
1E1V_CMG_A_401


 21 23  0  0  0  0  0  0  0  0999 V2000
   -0.2945   24.7285   10.5162 N   0  0  0  0  0  0  0  0  0  0  0  0
   -0.1213   23.6231   11.2304 C   0  0  0  0  0  0  0  0  0  0  0  0
   -0.3975   23.6537   12.5481 N   0  0  0  0  0  0  0  0  0  0  0  0
   -0.8506   24.7510   13.1419 C   0  0  0  0  0  0  0  0  0  0  0  0
   -0.9966   25.8823   12.4014 C   0  0  0  0  0  0  0  0  0  0  0  0
   -0.6994   25.8855   11.0409 C   0  0  0  0  0  0  0  0  0  0  0  0
   -1.4521   26.7501   13.2950 N   0  0  0  0  0  0  0  0  0  0  0  0
   -1.5666   26.2810   14.5833 C   0  0  0  0  0  0  0  0  0  0  0  0
   -1.2111   24.9886   14.3984 N   0  0  0  0  0  0  0  0  0  0  0  0
    0.2372   22.3725   10.8450 N   0  0  0  0  0  0  0  0  0  0  0  0
   -1.2187   24.3069   15.1088 H   0  0  0  0  0  0  0  0  0  0  0  0
    0.4692   22.1946    9.9049 H   0  0  0  0  0  0  0  0  0  0  0  0
    0.2654   21.6429   11.5054 H   0  0  0  0  0  0  0  0  0  0  0  0
   -0.8973   27.0736   10.3392 O   0  0  0  0  0  0  0  0  0  0  0  0
    0.3631   27.8072   10.3148 C   0  0  0  0  0  0  0  0  0  0  0  0
    0.5693   28.0064    8.7586 C   0  0  0  0  0  0  0  0  0  0  0  0
    0.3663   29.5359    8.4875 C   0  0  0  0  0  0  0  0  0  0  0  0
    0.8151   29.7930    7.0491 C   0  0  0  0  0  0  0  0  0  0  0  0
    2.3311   29.9835    7.2939 C   0  0  0  0  0  0  0  0  0  0  0  0
    2.6261   28.4271    7.3858 C   0  0  0  0  0  0  0  0  0  0  0  0
    2.0886   28.1984    8.8291 C   0  0  0  0  0  0  0  0  0  0  0  0
  1  2  2  0  0  0
  1  6  1  0  0  0
  2  3  1  0  0  0
  2 10  1  0  0  0
  3  4  2  0  0  0
  4  5  1  0  0  0
  4  9  1  0  0  0
  5  6  2  0  0  0
  5  7  1  0  0  0
  6 14  1  0  0  0
 14 15  1  0  0  0
 15 16  1  0  0  0
  7  8  2  0  0  0
  8  9  1  0  0  0
 16 17  1  0  0  0
 16 21  1  0  0  0
 17 18  1  0  0  0
 18 19  1  0  0  0
 19 20  1  0  0  0
 20 21  1  0  0  0
  9 11  1  0  0  0
 10 12  1  0  0  0
 10 13  1  0  0  0
M  END
> <minimizedAffinity>
-8.01004

$$$$
1E1V_CMG_A_401


 21 23  0  0  0  0  0  0  0  0999 V2000
   -0.7611   27.3109   11.2242 N   0  0  0  0  0  0  0  0  0  0  0  0
   -1.3864   26.4187   11.9825 C   0  0  0  0  0  0  0  0  0  0  0  0
   -0.8274   25.2049   12.1485 N   0  0  0  0  0  0  0  0  0  0  0  0
    0.3335   24.8874   11.5885 C   0  0  0  0  0  0  0  0  0  0  0  0
    0.9476   25.8033   10.7926 C   0  0  0  0  0  0  0  0  0  0  0  0
    0.3827   27.0595   10.5866 C   0  0  0  0  0  0  0  0  0  0  0  0
    2.0457   25.1619   10.4161 N   0  0  0  0  0  0  0  0  0  0  0  0
    2.1704   23.8685   10.8681 C   0  0  0  0  0  0  0  0  0  0  0  0
    1.0667   23.7809   11.6461 N   0  0  0  0  0  0  0  0  0  0  0  0
   -2.5174   26.5308   12.7236 N   0  0  0  0  0  0  0  0  0  0  0  0
    0.8352   22.9930   12.1890 H   0  0  0  0  0  0  0  0  0  0  0  0
   -3.0377   27.3663   12.7044 H   0  0  0  0  0  0  0  0  0  0  0  0
   -2.8176   25.7766   13.2807 H   0  0  0  0  0  0  0  0  0  0  0  0
    1.0803   27.9569    9.7797 O   0  0  0  0  0  0  0  0  0  0  0  0
    0.1436   28.5391    8.8251 C   0  0  0  0  0  0  0  0  0  0  0  0
    1.0652   28.6902    7.5478 C   0  0  0  0  0  0  0  0  0  0  0  0
    1.4205   30.2127    7.4482 C   0  0  0  0  0  0  0  0  0  0  0  0
    2.5126   30.3431    6.3867 C   0  0  0  0  0  0  0  0  0  0  0  0
    3.7506   30.0576    7.2699 C   0  0  0  0  0  0  0  0  0  0  0  0
    3.5466   28.4842    7.2434 C   0  0  0  0  0  0  0  0  0  0  0  0
    2.3840   28.4079    8.2765 C   0  0  0  0  0  0  0  0  0  0  0  0
  1  2  2  0  0  0
  1  6  1  0  0  0
  2  3  1  0  0  0
  2 10  1  0  0  0
  3  4  2  0  0  0
  4  5  1  0  0  0
  4  9  1  0  0  0
  5  6  2  0  0  0
  5  7  1  0  0  0
  6 14  1  0  0  0
 14 15  1  0  0  0
 15 16  1  0  0  0
  7  8  2  0  0  0
  8  9  1  0  0  0
 16 17  1  0  0  0
 16 21  1  0  0  0
 17 18  1  0  0  0
 18 19  1  0  0  0
 19 20  1  0  0  0
 20 21  1  0  0  0
  9 11  1  0  0  0
 10 12  1  0  0  0
 10 13  1  0  0  0
M  END
> <minimizedAffinity>
-7.82541

$$$$
1E1V_CMG_A_401


 21 23  0  0  0  0  0  0  0  0999 V2000
   -0.2893   26.8741   11.4409 N   0  0  0  0  0  0  0  0  0  0  0  0
   -0.8641   26.3260   12.5044 C   0  0  0  0  0  0  0  0  0  0  0  0
   -0.8480   24.9853   12.6302 N   0  0  0  0  0  0  0  0  0  0  0  0
   -0.2614   24.2058   11.7300 C   0  0  0  0  0  0  0  0  0  0  0  0
    0.2990   24.7815   10.6327 C   0  0  0  0  0  0  0  0  0  0  0  0
    0.2796   26.1640   10.4662 C   0  0  0  0  0  0  0  0  0  0  0  0
    0.7736   23.7333    9.9730 N   0  0  0  0  0  0  0  0  0  0  0  0
    0.5184   22.5040   10.5356 C   0  0  0  0  0  0  0  0  0  0  0  0
   -0.1024   22.8879   11.6749 N   0  0  0  0  0  0  0  0  0  0  0  0
   -1.4389   26.9022   13.5901 N   0  0  0  0  0  0  0  0  0  0  0  0
   -0.4002   22.2662   12.3778 H   0  0  0  0  0  0  0  0  0  0  0  0
   -1.5220   27.8819   13.6414 H   0  0  0  0  0  0  0  0  0  0  0  0
   -1.7729   26.3407   14.3265 H   0  0  0  0  0  0  0  0  0  0  0  0
    0.8959   26.6864    9.3303 O   0  0  0  0  0  0  0  0  0  0  0  0
    0.1714   27.8862    8.9262 C   0  0  0  0  0  0  0  0  0  0  0  0
    1.3609   28.9139    8.7457 C   0  0  0  0  0  0  0  0  0  0  0  0
    2.5586   28.0910    8.1605 C   0  0  0  0  0  0  0  0  0  0  0  0
    3.6231   29.1020    7.7348 C   0  0  0  0  0  0  0  0  0  0  0  0
    3.0933   29.4374    6.3201 C   0  0  0  0  0  0  0  0  0  0  0  0
    1.9809   30.4366    6.8513 C   0  0  0  0  0  0  0  0  0  0  0  0
    0.9576   29.3689    7.3385 C   0  0  0  0  0  0  0  0  0  0  0  0
  1  2  2  0  0  0
  1  6  1  0  0  0
  2  3  1  0  0  0
  2 10  1  0  0  0
  3  4  2  0  0  0
  4  5  1  0  0  0
  4  9  1  0  0  0
  5  6  2  0  0  0
  5  7  1  0  0  0
  6 14  1  0  0  0
 14 15  1  0  0  0
 15 16  1  0  0  0
  7  8  2  0  0  0
  8  9  1  0  0  0
 16 17  1  0  0  0
 16 21  1  0  0  0
 17 18  1  0  0  0
 18 19  1  0  0  0
 19 20  1  0  0  0
 20 21  1  0  0  0
  9 11  1  0  0  0
 10 12  1  0  0  0
 10 13  1  0  0  0
M  END
> <minimizedAffinity>
-7.73642

$$$$
1E1V_CMG_A_401


 21 23  0  0  0  0  0  0  0  0999 V2000
    2.4204   24.1475    9.2962 N   0  0  0  0  0  0  0  0  0  0  0  0
    2.1369   22.8553    9.4051 C   0  0  0  0  0  0  0  0  0  0  0  0
    1.2342   22.4658   10.3254 N   0  0  0  0  0  0  0  0  0  0  0  0
    0.6143   23.3391   11.1097 C   0  0  0  0  0  0  0  0  0  0  0  0
    0.9362   24.6562   11.0041 C   0  0  0  0  0  0  0  0  0  0  0  0
    1.8808   25.0855   10.0752 C   0  0  0  0  0  0  0  0  0  0  0  0
    0.1477   25.2151   11.9123 N   0  0  0  0  0  0  0  0  0  0  0  0
   -0.6330   24.3501   12.6437 C   0  0  0  0  0  0  0  0  0  0  0  0
   -0.3167   23.1791   12.0440 N   0  0  0  0  0  0  0  0  0  0  0  0
    2.5601   21.7957    8.6707 N   0  0  0  0  0  0  0  0  0  0  0  0
   -0.7266   22.3136   12.2723 H   0  0  0  0  0  0  0  0  0  0  0  0
    3.2241   21.9262    7.9556 H   0  0  0  0  0  0  0  0  0  0  0  0
    2.2031   20.8965    8.8529 H   0  0  0  0  0  0  0  0  0  0  0  0
    2.1420   26.4529   10.0045 O   0  0  0  0  0  0  0  0  0  0  0  0
    1.3412   27.0176    8.9241 C   0  0  0  0  0  0  0  0  0  0  0  0
    1.9722   28.4635    8.8010 C   0  0  0  0  0  0  0  0  0  0  0  0
    3.1262   28.3438    7.7483 C   0  0  0  0  0  0  0  0  0  0  0  0
    3.5742   29.7679    7.4201 C   0  0  0  0  0  0  0  0  0  0  0  0
    2.5368   30.1063    6.3230 C   0  0  0  0  0  0  0  0  0  0  0  0
    1.3791   30.4285    7.3593 C   0  0  0  0  0  0  0  0  0  0  0  0
    1.0069   28.9599    7.7186 C   0  0  0  0  0  0  0  0  0  0  0  0
  1  2  2  0  0  0
  1  6  1  0  0  0
  2  3  1  0  0  0
  2 10  1  0  0  0
  3  4  2  0  0  0
  4  5  1  0  0  0
  4  9  1  0  0  0
  5  6  2  0  0  0
  5  7  1  0  0  0
  6 14  1  0  0  0
 14 15  1  0  0  0
 15 16  1  0  0  0
  7  8  2  0  0  0
  8  9  1  0  0  0
 16 17  1  0  0  0
 16 21  1  0  0  0
 17 18  1  0  0  0
 18 19  1  0  0  0
 19 20  1  0  0  0
 20 21  1  0  0  0
  9 11  1  0  0  0
 10 12  1  0  0  0
 10 13  1  0  0  0
M  END
> <minimizedAffinity>
-7.45037

$$$$
1E1V_CMG_A_401


 21 23  0  0  0  0  0  0  0  0999 V2000
    0.9544   29.9133    7.7602 N   0  0  0  0  0  0  0  0  0  0  0  0
    1.6016   30.9312    7.2061 C   0  0  0  0  0  0  0  0  0  0  0  0
    2.8930   30.7667    6.8614 N   0  0  0  0  0  0  0  0  0  0  0  0
    3.5247   29.6141    7.0470 C   0  0  0  0  0  0  0  0  0  0  0  0
    2.8552   28.5900    7.6408 C   0  0  0  0  0  0  0  0  0  0  0  0
    1.5252   28.7380    8.0262 C   0  0  0  0  0  0  0  0  0  0  0  0
    3.7690   27.6290    7.6644 N   0  0  0  0  0  0  0  0  0  0  0  0
    5.0090   27.9673    7.1738 C   0  0  0  0  0  0  0  0  0  0  0  0
    4.7630   29.2307    6.7561 N   0  0  0  0  0  0  0  0  0  0  0  0
    1.1593   32.1591    6.8351 N   0  0  0  0  0  0  0  0  0  0  0  0
    5.4217   29.7970    6.2928 H   0  0  0  0  0  0  0  0  0  0  0  0
    0.2299   32.4247    7.0217 H   0  0  0  0  0  0  0  0  0  0  0  0
    1.7679   32.7846    6.3792 H   0  0  0  0  0  0  0  0  0  0  0  0
    0.8943   27.6382    8.6054 O   0  0  0  0  0  0  0  0  0  0  0  0
    0.9218   27.8042   10.0543 C   0  0  0  0  0  0  0  0  0  0  0  0
    0.6017   26.3312   10.5357 C   0  0  0  0  0  0  0  0  0  0  0  0
    0.0988   25.5612    9.2675 C   0  0  0  0  0  0  0  0  0  0  0  0
    0.0344   24.0816    9.6457 C   0  0  0  0  0  0  0  0  0  0  0  0
    1.5051   23.6908    9.3649 C   0  0  0  0  0  0  0  0  0  0  0  0
    2.0426   24.2875   10.7335 C   0  0  0  0  0  0  0  0  0  0  0  0
    2.0211   25.7907   10.3277 C   0  0  0  0  0  0  0  0  0  0  0  0
  1  2  2  0  0  0
  1  6  1  0  0  0
  2  3  1  0  0  0
  2 10  1  0  0  0
  3  4  2  0  0  0
  4  5  1  0  0  0
  4  9  1  0  0  0
  5  6  2  0  0  0
  5  7  1  0  0  0
  6 14  1  0  0  0
 14 15  1  0  0  0
 15 16  1  0  0  0
  7  8  2  0  0  0
  8  9  1  0  0  0
 16 17  1  0  0  0
 16 21  1  0  0  0
 17 18  1  0  0  0
 18 19  1  0  0  0
 19 20  1  0  0  0
 20 21  1  0  0  0
  9 11  1  0  0  0
 10 12  1  0  0  0
 10 13  1  0  0  0
M  END
> <minimizedAffinity>
-7.42388

$$$$
1E1V_CMG_A_401


 21 23  0  0  0  0  0  0  0  0999 V2000
    3.9721   27.4943    7.8119 N   0  0  0  0  0  0  0  0  0  0  0  0
    4.1054   28.4148    6.8648 C   0  0  0  0  0  0  0  0  0  0  0  0
    3.1269   29.3262    6.7056 N   0  0  0  0  0  0  0  0  0  0  0  0
    2.0476   29.3352    7.4782 C   0  0  0  0  0  0  0  0  0  0  0  0
    1.9138   28.3689    8.4258 C   0  0  0  0  0  0  0  0  0  0  0  0
    2.9003   27.4014    8.5995 C   0  0  0  0  0  0  0  0  0  0  0  0
    0.7529   28.6797    8.9867 N   0  0  0  0  0  0  0  0  0  0  0  0
    0.0896   29.7533    8.4388 C   0  0  0  0  0  0  0  0  0  0  0  0
    0.9968   30.1475    7.5154 N   0  0  0  0  0  0  0  0  0  0  0  0
    5.1378   28.6679    6.0215 N   0  0  0  0  0  0  0  0  0  0  0  0
    0.8911   30.9399    6.9409 H   0  0  0  0  0  0  0  0  0  0  0  0
    5.9296   28.0829    6.0233 H   0  0  0  0  0  0  0  0  0  0  0  0
    5.0950   29.4365    5.4078 H   0  0  0  0  0  0  0  0  0  0  0  0
    2.7086   26.4573    9.6070 O   0  0  0  0  0  0  0  0  0  0  0  0
    2.8846   25.1291    9.0305 C   0  0  0  0  0  0  0  0  0  0  0  0
    1.8583   24.2856    9.8901 C   0  0  0  0  0  0  0  0  0  0  0  0
    1.5168   25.1644   11.1411 C   0  0  0  0  0  0  0  0  0  0  0  0
    0.3390   24.4913   11.8457 C   0  0  0  0  0  0  0  0  0  0  0  0
   -0.8220   25.1079   11.0295 C   0  0  0  0  0  0  0  0  0  0  0  0
   -0.6426   24.1103    9.8086 C   0  0  0  0  0  0  0  0  0  0  0  0
    0.6036   24.7885    9.1672 C   0  0  0  0  0  0  0  0  0  0  0  0
  1  2  2  0  0  0
  1  6  1  0  0  0
  2  3  1  0  0  0
  2 10  1  0  0  0
  3  4  2  0  0  0
  4  5  1  0  0  0
  4  9  1  0  0  0
  5  6  2  0  0  0
  5  7  1  0  0  0
  6 14  1  0  0  0
 14 15  1  0  0  0
 15 16  1  0  0  0
  7  8  2  0  0  0
  8  9  1  0  0  0
 16 17  1  0  0  0
 16 21  1  0  0  0
 17 18  1  0  0  0
 18 19  1  0  0  0
 19 20  1  0  0  0
 20 21  1  0  0  0
  9 11  1  0  0  0
 10 12  1  0  0  0
 10 13  1  0  0  0
M  END
> <minimizedAffinity>
-7.30778

$$$$
1E1V_CMG_A_401


 21 23  0  0  0  0  0  0  0  0999 V2000
    3.0979   26.5485    9.1506 N   0  0  0  0  0  0  0  0  0  0  0  0
    3.9300   27.0602    8.2519 C   0  0  0  0  0  0  0  0  0  0  0  0
    3.5564   28.1651    7.5788 N   0  0  0  0  0  0  0  0  0  0  0  0
    2.3906   28.7592    7.8026 C   0  0  0  0  0  0  0  0  0  0  0  0
    1.5383   28.2067    8.7070 C   0  0  0  0  0  0  0  0  0  0  0  0
    1.8897   27.0529    9.4032 C   0  0  0  0  0  0  0  0  0  0  0  0
    0.5064   29.0391    8.6704 N   0  0  0  0  0  0  0  0  0  0  0  0
    0.6001   30.0721    7.7666 C   0  0  0  0  0  0  0  0  0  0  0  0
    1.8462   29.8554    7.2857 N   0  0  0  0  0  0  0  0  0  0  0  0
    5.1929   26.6971    7.9135 N   0  0  0  0  0  0  0  0  0  0  0  0
    2.2950   30.4391    6.6322 H   0  0  0  0  0  0  0  0  0  0  0  0
    5.6043   25.9038    8.3265 H   0  0  0  0  0  0  0  0  0  0  0  0
    5.6977   27.2270    7.2549 H   0  0  0  0  0  0  0  0  0  0  0  0
    0.9777   26.5569   10.3335 O   0  0  0  0  0  0  0  0  0  0  0  0
    0.1640   25.5380    9.6799 C   0  0  0  0  0  0  0  0  0  0  0  0
   -0.7637   25.0761   10.8756 C   0  0  0  0  0  0  0  0  0  0  0  0
    0.1839   24.8788   12.1073 C   0  0  0  0  0  0  0  0  0  0  0  0
   -0.7141   24.6897   13.3298 C   0  0  0  0  0  0  0  0  0  0  0  0
   -0.9585   26.1750   13.6886 C   0  0  0  0  0  0  0  0  0  0  0  0
   -2.0712   26.3773   12.5755 C   0  0  0  0  0  0  0  0  0  0  0  0
   -1.1195   26.4903   11.3482 C   0  0  0  0  0  0  0  0  0  0  0  0
  1  2  2  0  0  0
  1  6  1  0  0  0
  2  3  1  0  0  0
  2 10  1  0  0  0
  3  4  2  0  0  0
  4  5  1  0  0  0
  4  9  1  0  0  0
  5  6  2  0  0  0
  5  7  1  0  0  0
  6 14  1  0  0  0
 14 15  1  0  0  0
 15 16  1  0  0  0
  7  8  2  0  0  0
  8  9  1  0  0  0
 16 17  1  0  0  0
 16 21  1  0  0  0
 17 18  1  0  0  0
 18 19  1  0  0  0
 19 20  1  0  0  0
 20 21  1  0  0  0
  9 11  1  0  0  0
 10 12  1  0  0  0
 10 13  1  0  0  0
M  END
> <minimizedAffinity>
-7.26247

$$$$
1E1V_CMG_A_401


 21 23  0  0  0  0  0  0  0  0999 V2000
    0.5101   25.6885   11.4710 N   0  0  0  0  0  0  0  0  0  0  0  0
   -0.1261   24.7575   12.1713 C   0  0  0  0  0  0  0  0  0  0  0  0
    0.1730   23.4633   11.9497 N   0  0  0  0  0  0  0  0  0  0  0  0
    1.0936   23.1003   11.0650 C   0  0  0  0  0  0  0  0  0  0  0  0
    1.7167   24.0650   10.3366 C   0  0  0  0  0  0  0  0  0  0  0  0
    1.4130   25.4103   10.5301 C   0  0  0  0  0  0  0  0  0  0  0  0
    2.5439   23.3585    9.5778 N   0  0  0  0  0  0  0  0  0  0  0  0
    2.4706   21.9921    9.7207 C   0  0  0  0  0  0  0  0  0  0  0  0
    1.5602   21.9056   10.7181 N   0  0  0  0  0  0  0  0  0  0  0  0
   -1.0262   24.8753   13.1798 N   0  0  0  0  0  0  0  0  0  0  0  0
    1.2778   21.0601   11.1359 H   0  0  0  0  0  0  0  0  0  0  0  0
   -1.3416   25.7659   13.4565 H   0  0  0  0  0  0  0  0  0  0  0  0
   -1.3637   24.0702   13.6349 H   0  0  0  0  0  0  0  0  0  0  0  0
    2.1092   26.3459    9.7666 O   0  0  0  0  0  0  0  0  0  0  0  0
    1.1557   27.0356    8.9049 C   0  0  0  0  0  0  0  0  0  0  0  0
    1.8232   28.4661    8.7958 C   0  0  0  0  0  0  0  0  0  0  0  0
    2.9863   28.3227    7.7563 C   0  0  0  0  0  0  0  0  0  0  0  0
    3.4729   29.7368    7.4398 C   0  0  0  0  0  0  0  0  0  0  0  0
    2.4572   30.1051    6.3321 C   0  0  0  0  0  0  0  0  0  0  0  0
    1.2955   30.4512    7.3560 C   0  0  0  0  0  0  0  0  0  0  0  0
    0.8833   28.9906    7.7044 C   0  0  0  0  0  0  0  0  0  0  0  0
  1  2  2  0  0  0
  1  6  1  0  0  0
  2  3  1  0  0  0
  2 10  1  0  0  0
  3  4  2  0  0  0
  4  5  1  0  0  0
  4  9  1  0  0  0
  5  6  2  0  0  0
  5  7  1  0  0  0
  6 14  1  0  0  0
 14 15  1  0  0  0
 15 16  1  0  0  0
  7  8  2  0  0  0
  8  9  1  0  0  0
 16 17  1  0  0  0
 16 21  1  0  0  0
 17 18  1  0  0  0
 18 19  1  0  0  0
 19 20  1  0  0  0
 20 21  1  0  0  0
  9 11  1  0  0  0
 10 12  1  0  0  0
 10 13  1  0  0  0
M  END
> <minimizedAffinity>
-7.26049

$$$$
1E1V_CMG_A_401


 21 23  0  0  0  0  0  0  0  0999 V2000
    0.9214   29.8682    7.6986 N   0  0  0  0  0  0  0  0  0  0  0  0
    1.5793   30.8769    7.1404 C   0  0  0  0  0  0  0  0  0  0  0  0
    2.8801   30.7109    6.8340 N   0  0  0  0  0  0  0  0  0  0  0  0
    3.5110   29.5653    7.0610 C   0  0  0  0  0  0  0  0  0  0  0  0
    2.8298   28.5510    7.6583 C   0  0  0  0  0  0  0  0  0  0  0  0
    1.4893   28.7012    8.0047 C   0  0  0  0  0  0  0  0  0  0  0  0
    3.7463   27.5947    7.7267 N   0  0  0  0  0  0  0  0  0  0  0  0
    4.9977   27.9281    7.2624 C   0  0  0  0  0  0  0  0  0  0  0  0
    4.7581   29.1812    6.8115 N   0  0  0  0  0  0  0  0  0  0  0  0
    1.1424   32.0948    6.7317 N   0  0  0  0  0  0  0  0  0  0  0  0
    5.4269   29.7405    6.3540 H   0  0  0  0  0  0  0  0  0  0  0  0
    0.2073   32.3601    6.8877 H   0  0  0  0  0  0  0  0  0  0  0  0
    1.7606   32.7131    6.2791 H   0  0  0  0  0  0  0  0  0  0  0  0
    0.8474   27.6112    8.5901 O   0  0  0  0  0  0  0  0  0  0  0  0
    0.7000   27.8776   10.0166 C   0  0  0  0  0  0  0  0  0  0  0  0
   -0.3273   26.7482   10.4327 C   0  0  0  0  0  0  0  0  0  0  0  0
    0.5362   25.5427   10.9379 C   0  0  0  0  0  0  0  0  0  0  0  0
   -0.4282   24.5492   11.5856 C   0  0  0  0  0  0  0  0  0  0  0  0
   -0.4981   25.1625   13.0046 C   0  0  0  0  0  0  0  0  0  0  0  0
   -1.5294   26.2938   12.5869 C   0  0  0  0  0  0  0  0  0  0  0  0
   -0.5211   27.2405   11.8714 C   0  0  0  0  0  0  0  0  0  0  0  0
  1  2  2  0  0  0
  1  6  1  0  0  0
  2  3  1  0  0  0
  2 10  1  0  0  0
  3  4  2  0  0  0
  4  5  1  0  0  0
  4  9  1  0  0  0
  5  6  2  0  0  0
  5  7  1  0  0  0
  6 14  1  0  0  0
 14 15  1  0  0  0
 15 16  1  0  0  0
  7  8  2  0  0  0
  8  9  1  0  0  0
 16 17  1  0  0  0
 16 21  1  0  0  0
 17 18  1  0  0  0
 18 19  1  0  0  0
 19 20  1  0  0  0
 20 21  1  0  0  0
  9 11  1  0  0  0
 10 12  1  0  0  0
 10 13  1  0  0  0
M  END
> <minimizedAffinity>
-7.21801

$$$$
