4LOH_1SY_A_401


 54 60  0  0  0  0  0  0  0  0999 V2000
  -56.8929    2.3375   70.2596 C   0  0  0  0  0  0  0  0  0  0  0  0
  -55.6023    2.2072   70.6802 C   0  0  0  0  0  0  0  0  0  0  0  0
  -55.2093    0.7037   70.6902 O   0  0  0  0  0  0  0  0  0  0  0  0
  -55.7851    2.8281   72.0833 C   0  0  0  0  0  0  0  0  0  0  0  0
  -57.0469    2.1877   72.6048 C   0  0  0  0  0  0  0  0  0  0  0  0
  -57.7481    2.9087   73.7924 C   0  0  0  0  0  0  0  0  0  0  0  0
  -58.0469    4.2067   73.3479 O   0  0  0  0  0  0  0  0  0  0  0  0
  -58.2202    5.3629   74.4099 P   0  0  0  0  0  0  0  0  0  0  0  0
  -58.4360    6.6186   73.6728 O   0  0  0  0  0  0  0  0  0  0  0  0
  -57.0034    5.6841   75.3573 O   0  0  0  0  0  0  0  0  0  0  0  0
  -55.7009    5.6889   74.8865 C   0  0  0  0  0  0  0  0  0  0  0  0
  -55.0274    4.7066   75.8126 C   0  0  0  0  0  0  0  0  0  0  0  0
  -55.5662    4.5891   77.2667 O   0  0  0  0  0  0  0  0  0  0  0  0
  -53.6285    5.2025   75.7672 C   0  0  0  0  0  0  0  0  0  0  0  0
  -52.8808    4.2952   74.7955 C   0  0  0  0  0  0  0  0  0  0  0  0
  -53.3611    4.5106   73.4338 O   0  0  0  0  0  0  0  0  0  0  0  0
  -53.2857    3.2675   72.4937 P   0  0  0  0  0  0  0  0  0  0  0  0
  -54.6647    2.3894   72.8026 O   0  0  0  0  0  0  0  0  0  0  0  0
  -52.1619    2.3865   73.0279 O   0  0  0  0  0  0  0  0  0  0  0  0
  -53.1732    3.8496   71.1191 O   0  0  0  0  0  0  0  0  0  0  0  0
  -53.6373    6.6038   75.2738 O   0  0  0  0  0  0  0  0  0  0  0  0
  -54.9555    7.0466   75.0363 C   0  0  0  0  0  0  0  0  0  0  0  0
  -59.3322    5.0827   75.4406 O   0  0  0  0  0  0  0  0  0  0  0  0
  -57.7766    2.2411   71.4518 O   0  0  0  0  0  0  0  0  0  0  0  0
  -55.8640    0.2017   71.2004 H   0  0  0  0  0  0  0  0  0  0  0  0
  -59.1780    6.5090   73.0577 H   0  0  0  0  0  0  0  0  0  0  0  0
  -55.4850    5.4470   77.7119 H   0  0  0  0  0  0  0  0  0  0  0  0
  -53.9615    4.3815   70.9277 H   0  0  0  0  0  0  0  0  0  0  0  0
  -54.7431    7.7140   73.7902 N   0  0  0  0  0  0  0  0  0  0  0  0
  -54.2562    7.2919   72.6022 C   0  0  0  0  0  0  0  0  0  0  0  0
  -54.2970    8.3124   71.7527 N   0  0  0  0  0  0  0  0  0  0  0  0
  -55.0344    8.9631   73.6637 C   0  0  0  0  0  0  0  0  0  0  0  0
  -54.7884    9.3484   72.3939 C   0  0  0  0  0  0  0  0  0  0  0  0
  -55.0090   10.6007   72.0264 C   0  0  0  0  0  0  0  0  0  0  0  0
  -55.5219   11.4182   72.9763 N   0  0  0  0  0  0  0  0  0  0  0  0
  -55.7717   10.9893   74.2964 C   0  0  0  0  0  0  0  0  0  0  0  0
  -56.2677   11.7202   75.2842 N   0  0  0  0  0  0  0  0  0  0  0  0
  -55.5281    9.7508   74.6342 N   0  0  0  0  0  0  0  0  0  0  0  0
  -54.7797   11.0425   70.8878 O   0  0  0  0  0  0  0  0  0  0  0  0
  -56.4030   11.3193   76.1732 H   0  0  0  0  0  0  0  0  0  0  0  0
  -56.5010   12.6640   75.1291 H   0  0  0  0  0  0  0  0  0  0  0  0
  -55.6961    9.4150   75.5443 H   0  0  0  0  0  0  0  0  0  0  0  0
  -55.7183    3.1294   66.5185 C   0  0  0  0  0  0  0  0  0  0  0  0
  -56.6794    6.5895   66.5299 N   0  0  0  0  0  0  0  0  0  0  0  0
  -56.4767    5.3170   66.9041 C   0  0  0  0  0  0  0  0  0  0  0  0
  -55.9341    4.4355   66.1106 N   0  0  0  0  0  0  0  0  0  0  0  0
  -56.0768    2.7471   67.7684 N   0  0  0  0  0  0  0  0  0  0  0  0
  -56.6260    3.7066   68.5357 C   0  0  0  0  0  0  0  0  0  0  0  0
  -56.7994    4.9564   68.1326 C   0  0  0  0  0  0  0  0  0  0  0  0
  -57.3588    5.6159   69.1293 N   0  0  0  0  0  0  0  0  0  0  0  0
  -57.5227    4.7985   70.1620 C   0  0  0  0  0  0  0  0  0  0  0  0
  -57.0665    3.6146   69.7626 N   0  0  0  0  0  0  0  0  0  0  0  0
  -57.0920    7.2271   67.1565 H   0  0  0  0  0  0  0  0  0  0  0  0
  -56.4156    6.8856   65.6289 H   0  0  0  0  0  0  0  0  0  0  0  0
 23  8  2  0  0  0
  9  8  1  0  0  0
  8  7  1  0  0  0
  8 10  1  0  0  0
  7  6  1  0  0  0
 24  5  1  0  0  0
 24  1  1  0  0  0
  6  5  1  0  0  0
 51 50  2  0  0  0
 51 52  1  0  0  0
 50 49  1  0  0  0
 10 11  1  0  0  0
 52  1  1  0  0  0
 52 48  1  0  0  0
 37 36  1  0  0  0
  5  4  1  0  0  0
  1  2  1  0  0  0
 49 48  2  0  0  0
 49 45  1  0  0  0
 44 45  1  0  0  0
 48 47  1  0  0  0
 36 38  1  0  0  0
 36 35  2  0  0  0
 45 46  2  0  0  0
 38 32  1  0  0  0
 35 34  1  0  0  0
 11 12  1  0  0  0
 11 22  1  0  0  0
 13 12  1  0  0  0
 47 43  2  0  0  0
  4  2  1  0  0  0
  4 18  1  0  0  0
 46 43  1  0  0  0
  2  3  1  0  0  0
 32 33  2  0  0  0
 32 29  1  0  0  0
 34 39  2  0  0  0
 34 33  1  0  0  0
 12 14  1  0  0  0
 22 29  1  0  0  0
 22 21  1  0  0  0
 33 31  1  0  0  0
 29 30  1  0  0  0
 18 17  1  0  0  0
 31 30  2  0  0  0
 21 14  1  0  0  0
 14 15  1  0  0  0
 16 17  1  0  0  0
 16 15  1  0  0  0
 17 19  2  0  0  0
 17 20  1  0  0  0
 44 53  1  0  0  0
 44 54  1  0  0  0
  3 25  1  0  0  0
  9 26  1  0  0  0
 13 27  1  0  0  0
 20 28  1  0  0  0
 37 40  1  0  0  0
 37 41  1  0  0  0
 38 42  1  0  0  0
M  END
> <minimizedAffinity>
-16.39369

$$$$
4LOH_1SY_A_401


 54 60  0  0  0  0  0  0  0  0999 V2000
  -54.5168    7.6802   74.9065 C   0  0  0  0  0  0  0  0  0  0  0  0
  -55.7975    7.2553   75.1039 C   0  0  0  0  0  0  0  0  0  0  0  0
  -56.1735    7.4202   76.6028 O   0  0  0  0  0  0  0  0  0  0  0  0
  -55.5943    5.7909   74.6546 C   0  0  0  0  0  0  0  0  0  0  0  0
  -54.3156    5.3735   75.3364 C   0  0  0  0  0  0  0  0  0  0  0  0
  -53.5994    4.1202   74.7547 C   0  0  0  0  0  0  0  0  0  0  0  0
  -53.3237    4.4097   73.4086 O   0  0  0  0  0  0  0  0  0  0  0  0
  -53.1427    3.2189   72.3869 P   0  0  0  0  0  0  0  0  0  0  0  0
  -52.9552    3.8025   71.0486 O   0  0  0  0  0  0  0  0  0  0  0  0
  -54.3443    2.2179   72.1988 O   0  0  0  0  0  0  0  0  0  0  0  0
  -55.6556    2.6611   72.1547 C   0  0  0  0  0  0  0  0  0  0  0  0
  -56.3001    1.8487   73.2505 C   0  0  0  0  0  0  0  0  0  0  0  0
  -55.7318    0.4294   73.5355 O   0  0  0  0  0  0  0  0  0  0  0  0
  -57.7049    1.8086   72.7715 C   0  0  0  0  0  0  0  0  0  0  0  0
  -58.4614    2.8693   73.5648 C   0  0  0  0  0  0  0  0  0  0  0  0
  -58.0101    4.2034   73.1800 O   0  0  0  0  0  0  0  0  0  0  0  0
  -58.0900    5.2855   74.3015 P   0  0  0  0  0  0  0  0  0  0  0  0
  -56.6955    5.1100   75.1919 O   0  0  0  0  0  0  0  0  0  0  0  0
  -59.1933    4.8416   75.2555 O   0  0  0  0  0  0  0  0  0  0  0  0
  -58.2356    6.5773   73.5592 O   0  0  0  0  0  0  0  0  0  0  0  0
  -57.7213    2.1289   71.3209 O   0  0  0  0  0  0  0  0  0  0  0  0
  -56.4130    2.3347   70.8350 C   0  0  0  0  0  0  0  0  0  0  0  0
  -52.0077    2.2499   72.7747 O   0  0  0  0  0  0  0  0  0  0  0  0
  -53.6091    6.5245   75.1343 O   0  0  0  0  0  0  0  0  0  0  0  0
  -55.5034    6.9864   77.1539 H   0  0  0  0  0  0  0  0  0  0  0  0
  -52.2242    4.4396   71.0732 H   0  0  0  0  0  0  0  0  0  0  0  0
  -55.8137   -0.1177   72.7388 H   0  0  0  0  0  0  0  0  0  0  0  0
  -57.4572    6.7171   72.9976 H   0  0  0  0  0  0  0  0  0  0  0  0
  -56.6571    3.4870   70.0250 N   0  0  0  0  0  0  0  0  0  0  0  0
  -57.1410    4.7159   70.3114 C   0  0  0  0  0  0  0  0  0  0  0  0
  -57.1395    5.4318   69.1923 N   0  0  0  0  0  0  0  0  0  0  0  0
  -56.4058    3.4582   68.7611 C   0  0  0  0  0  0  0  0  0  0  0  0
  -56.6749    4.6689   68.2290 C   0  0  0  0  0  0  0  0  0  0  0  0
  -56.4966    4.8785   66.9343 C   0  0  0  0  0  0  0  0  0  0  0  0
  -56.0010    3.8367   66.2253 N   0  0  0  0  0  0  0  0  0  0  0  0
  -55.7264    2.5815   66.8068 C   0  0  0  0  0  0  0  0  0  0  0  0
  -55.2446    1.5128   66.1891 N   0  0  0  0  0  0  0  0  0  0  0  0
  -55.9283    2.3995   68.0850 N   0  0  0  0  0  0  0  0  0  0  0  0
  -56.7495    5.9521   66.3618 O   0  0  0  0  0  0  0  0  0  0  0  0
  -55.0891    0.6814   66.6929 H   0  0  0  0  0  0  0  0  0  0  0  0
  -55.0422    1.5502   65.2264 H   0  0  0  0  0  0  0  0  0  0  0  0
  -55.7419    1.5392   68.5257 H   0  0  0  0  0  0  0  0  0  0  0  0
  -55.7903   11.2687   73.6805 C   0  0  0  0  0  0  0  0  0  0  0  0
  -54.8608   10.8589   70.2361 N   0  0  0  0  0  0  0  0  0  0  0  0
  -55.0426   10.6377   71.5470 C   0  0  0  0  0  0  0  0  0  0  0  0
  -55.5966   11.5197   72.3321 N   0  0  0  0  0  0  0  0  0  0  0  0
  -55.3978   10.0833   74.2074 N   0  0  0  0  0  0  0  0  0  0  0  0
  -54.8385    9.2180   73.3416 C   0  0  0  0  0  0  0  0  0  0  0  0
  -54.6864    9.4701   72.0501 C   0  0  0  0  0  0  0  0  0  0  0  0
  -54.1087    8.4139   71.5098 N   0  0  0  0  0  0  0  0  0  0  0  0
  -53.9120    7.4924   72.4445 C   0  0  0  0  0  0  0  0  0  0  0  0
  -54.3671    8.0221   73.5765 N   0  0  0  0  0  0  0  0  0  0  0  0
  -54.4387   10.1693   69.6744 H   0  0  0  0  0  0  0  0  0  0  0  0
  -55.1494   11.7109   69.8360 H   0  0  0  0  0  0  0  0  0  0  0  0
 23  8  2  0  0  0
  9  8  1  0  0  0
  8  7  1  0  0  0
  8 10  1  0  0  0
  7  6  1  0  0  0
 24  5  1  0  0  0
 24  1  1  0  0  0
  6  5  1  0  0  0
 51 50  2  0  0  0
 51 52  1  0  0  0
 50 49  1  0  0  0
 10 11  1  0  0  0
 52  1  1  0  0  0
 52 48  1  0  0  0
 37 36  1  0  0  0
  5  4  1  0  0  0
  1  2  1  0  0  0
 49 48  2  0  0  0
 49 45  1  0  0  0
 44 45  1  0  0  0
 48 47  1  0  0  0
 36 38  1  0  0  0
 36 35  2  0  0  0
 45 46  2  0  0  0
 38 32  1  0  0  0
 35 34  1  0  0  0
 11 12  1  0  0  0
 11 22  1  0  0  0
 13 12  1  0  0  0
 47 43  2  0  0  0
  4  2  1  0  0  0
  4 18  1  0  0  0
 46 43  1  0  0  0
  2  3  1  0  0  0
 32 33  2  0  0  0
 32 29  1  0  0  0
 34 39  2  0  0  0
 34 33  1  0  0  0
 12 14  1  0  0  0
 22 29  1  0  0  0
 22 21  1  0  0  0
 33 31  1  0  0  0
 29 30  1  0  0  0
 18 17  1  0  0  0
 31 30  2  0  0  0
 21 14  1  0  0  0
 14 15  1  0  0  0
 16 17  1  0  0  0
 16 15  1  0  0  0
 17 19  2  0  0  0
 17 20  1  0  0  0
 44 53  1  0  0  0
 44 54  1  0  0  0
  3 25  1  0  0  0
  9 26  1  0  0  0
 13 27  1  0  0  0
 20 28  1  0  0  0
 37 40  1  0  0  0
 37 41  1  0  0  0
 38 42  1  0  0  0
M  END
> <minimizedAffinity>
-16.31511

$$$$
