4EWN_0VR_D_400


 30 30  0  0  0  0  0  0  0  0999 V2000
   15.9002   18.5195   22.1630 C   0  0  0  0  0  0  0  0  0  0  0  0
   15.2118   18.4325   23.3479 O   0  0  0  0  0  0  0  0  0  0  0  0
   15.3164   19.2595   23.8441 H   0  0  0  0  0  0  0  0  0  0  0  0
   17.4002   18.6528   22.3435 C   0  0  0  0  0  0  0  0  0  0  0  0
   17.9436   18.8061   21.0845 O   0  0  0  0  0  0  0  0  0  0  0  0
   17.7568   18.0162   20.5533 H   0  0  0  0  0  0  0  0  0  0  0  0
   18.0854   17.4561   22.9898 C   0  0  0  0  0  0  0  0  0  0  0  0
   17.1680   16.5909   23.5433 O   0  0  0  0  0  0  0  0  0  0  0  0
   16.6914   17.0396   24.2592 H   0  0  0  0  0  0  0  0  0  0  0  0
   19.0932   17.8586   24.0647 C   0  0  0  0  0  0  0  0  0  0  0  0
   19.8021   16.7362   24.5187 O   0  0  0  0  0  0  0  0  0  0  0  0
   19.6920   16.2333   26.0067 P   0  0  0  0  0  0  0  0  0  0  0  0
   18.2921   15.7837   26.3511 O   0  0  0  0  0  0  0  0  0  0  0  0
   20.6839   15.0868   26.1385 O   0  0  0  0  0  0  0  0  0  0  0  0
   20.0198   17.3225   27.0098 O   0  0  0  0  0  0  0  0  0  0  0  0
   20.4666   14.3956   25.4937 H   0  0  0  0  0  0  0  0  0  0  0  0
   19.3830   18.0485   26.9185 H   0  0  0  0  0  0  0  0  0  0  0  0
   15.3199   19.6785   21.4005 C   0  0  0  0  0  0  0  0  0  0  0  0
   14.8246   19.1895   20.1067 N   0  0  0  0  0  0  0  0  0  0  0  0
   15.4342   18.6921   19.5150 H   0  0  0  0  0  0  0  0  0  0  0  0
   12.8266   18.4451   19.2862 C   0  0  0  0  0  0  0  0  0  0  0  0
   13.4518   19.4241   19.6797 C   0  0  0  0  0  0  0  0  0  0  0  0
   13.0978   20.7333   19.8057 C   0  0  0  0  0  0  0  0  0  0  0  0
   11.5845   20.9185   19.3248 C   0  0  0  0  0  0  0  0  0  0  0  0
   10.9444   19.5588   18.8509 C   0  0  0  0  0  0  0  0  0  0  0  0
   11.6972   18.4497   18.9022 C   0  0  0  0  0  0  0  0  0  0  0  0
   13.4728   17.0960   19.2554 C   0  0  0  0  0  0  0  0  0  0  0  0
   13.4295   16.4996   20.3630 O   0  0  0  0  0  0  0  0  0  0  0  0
   13.9190   16.8097   18.1153 O   0  0  0  0  0  0  0  0  0  0  0  0
   13.0364   16.9163   21.1044 H   0  0  0  0  0  0  0  0  0  0  0  0
 29 27  2  0  0  0
 27 28  1  0  0  0
 27 21  1  0  0  0
 21 26  2  0  0  0
 21 22  1  0  0  0
 26 25  1  0  0  0
 19 22  1  0  0  0
 19 18  1  0  0  0
 22 23  2  0  0  0
 18  1  1  0  0  0
  1  2  1  0  0  0
  1  4  1  0  0  0
 25 24  2  0  0  0
  5  4  1  0  0  0
 23 24  1  0  0  0
  4  7  1  0  0  0
  7  8  1  0  0  0
  7 10  1  0  0  0
 10 11  1  0  0  0
 11 12  1  0  0  0
 13 12  2  0  0  0
 12 15  1  0  0  0
 12 14  1  0  0  0
 14 16  1  0  0  0
 15 17  1  0  0  0
  8  9  1  0  0  0
  5  6  1  0  0  0
  2  3  1  0  0  0
 19 20  1  0  0  0
 28 30  1  0  0  0
M  END
> <minimizedAffinity>
-8.13022

$$$$
4EWN_0VR_D_400


 30 30  0  0  0  0  0  0  0  0999 V2000
   15.8318   18.3227   21.7772 C   0  0  0  0  0  0  0  0  0  0  0  0
   14.9671   18.6538   22.7912 O   0  0  0  0  0  0  0  0  0  0  0  0
   15.0843   19.5881   23.0239 H   0  0  0  0  0  0  0  0  0  0  0  0
   17.2929   18.4228   22.1716 C   0  0  0  0  0  0  0  0  0  0  0  0
   18.0301   18.3156   21.0102 O   0  0  0  0  0  0  0  0  0  0  0  0
   17.8696   17.4494   20.6041 H   0  0  0  0  0  0  0  0  0  0  0  0
   17.7848   17.3390   23.1218 C   0  0  0  0  0  0  0  0  0  0  0  0
   16.7346   16.7114   23.7542 O   0  0  0  0  0  0  0  0  0  0  0  0
   16.2612   17.3520   24.3079 H   0  0  0  0  0  0  0  0  0  0  0  0
   18.7495   17.8708   24.1798 C   0  0  0  0  0  0  0  0  0  0  0  0
   19.6579   16.8725   24.5627 O   0  0  0  0  0  0  0  0  0  0  0  0
   19.6439   16.2506   26.0091 P   0  0  0  0  0  0  0  0  0  0  0  0
   18.2801   15.7228   26.3862 O   0  0  0  0  0  0  0  0  0  0  0  0
   20.6793   15.1355   25.9984 O   0  0  0  0  0  0  0  0  0  0  0  0
   19.9877   17.2692   27.0788 O   0  0  0  0  0  0  0  0  0  0  0  0
   20.4515   14.4892   25.3118 H   0  0  0  0  0  0  0  0  0  0  0  0
   19.3229   17.9756   27.0782 H   0  0  0  0  0  0  0  0  0  0  0  0
   15.5019   19.2109   20.6094 C   0  0  0  0  0  0  0  0  0  0  0  0
   14.1098   19.6618   20.7401 N   0  0  0  0  0  0  0  0  0  0  0  0
   13.4092   19.0042   20.9547 H   0  0  0  0  0  0  0  0  0  0  0  0
   12.8156   21.2867   19.7892 C   0  0  0  0  0  0  0  0  0  0  0  0
   13.7427   21.0598   20.5594 C   0  0  0  0  0  0  0  0  0  0  0  0
   14.5192   21.8895   21.3102 C   0  0  0  0  0  0  0  0  0  0  0  0
   14.0619   23.4021   21.0675 C   0  0  0  0  0  0  0  0  0  0  0  0
   12.8647   23.5011   20.0477 C   0  0  0  0  0  0  0  0  0  0  0  0
   12.3811   22.3653   19.5228 C   0  0  0  0  0  0  0  0  0  0  0  0
   12.1233   20.1625   19.0853 C   0  0  0  0  0  0  0  0  0  0  0  0
   12.6820   19.8335   18.0064 O   0  0  0  0  0  0  0  0  0  0  0  0
   11.1219   19.7485   19.7231 O   0  0  0  0  0  0  0  0  0  0  0  0
   13.4424   20.2955   17.7127 H   0  0  0  0  0  0  0  0  0  0  0  0
 29 27  2  0  0  0
 27 28  1  0  0  0
 27 21  1  0  0  0
 21 26  2  0  0  0
 21 22  1  0  0  0
 26 25  1  0  0  0
 19 22  1  0  0  0
 19 18  1  0  0  0
 22 23  2  0  0  0
 18  1  1  0  0  0
  1  2  1  0  0  0
  1  4  1  0  0  0
 25 24  2  0  0  0
  5  4  1  0  0  0
 23 24  1  0  0  0
  4  7  1  0  0  0
  7  8  1  0  0  0
  7 10  1  0  0  0
 10 11  1  0  0  0
 11 12  1  0  0  0
 13 12  2  0  0  0
 12 15  1  0  0  0
 12 14  1  0  0  0
 14 16  1  0  0  0
 15 17  1  0  0  0
  8  9  1  0  0  0
  5  6  1  0  0  0
  2  3  1  0  0  0
 19 20  1  0  0  0
 28 30  1  0  0  0
M  END
> <minimizedAffinity>
-7.83506

$$$$
4EWN_0VR_D_400


 30 30  0  0  0  0  0  0  0  0999 V2000
   13.4881   21.9732   14.3982 C   0  0  0  0  0  0  0  0  0  0  0  0
   14.7922   21.8038   14.0030 O   0  0  0  0  0  0  0  0  0  0  0  0
   15.2947   22.6119   14.1912 H   0  0  0  0  0  0  0  0  0  0  0  0
   12.7560   23.0507   13.6214 C   0  0  0  0  0  0  0  0  0  0  0  0
   13.2895   24.2610   14.0144 O   0  0  0  0  0  0  0  0  0  0  0  0
   13.1323   24.3911   14.9627 H   0  0  0  0  0  0  0  0  0  0  0  0
   11.2539   23.1182   13.8628 C   0  0  0  0  0  0  0  0  0  0  0  0
   10.5679   22.3050   12.9885 O   0  0  0  0  0  0  0  0  0  0  0  0
   10.7030   22.6193   12.0808 H   0  0  0  0  0  0  0  0  0  0  0  0
   10.6987   24.5370   13.7539 C   0  0  0  0  0  0  0  0  0  0  0  0
   10.2317   24.9790   15.0009 O   0  0  0  0  0  0  0  0  0  0  0  0
    9.0678   24.2382   15.7595 P   0  0  0  0  0  0  0  0  0  0  0  0
    8.2626   25.1810   16.6217 O   0  0  0  0  0  0  0  0  0  0  0  0
    8.1997   23.6037   14.6827 O   0  0  0  0  0  0  0  0  0  0  0  0
    9.5831   23.1721   16.7071 O   0  0  0  0  0  0  0  0  0  0  0  0
    7.8748   24.2924   14.0819 H   0  0  0  0  0  0  0  0  0  0  0  0
   10.1349   23.5854   17.3895 H   0  0  0  0  0  0  0  0  0  0  0  0
   13.5089   22.2593   15.8744 C   0  0  0  0  0  0  0  0  0  0  0  0
   12.2503   21.7827   16.4635 N   0  0  0  0  0  0  0  0  0  0  0  0
   11.4236   22.2953   16.3118 H   0  0  0  0  0  0  0  0  0  0  0  0
   11.3564   19.7364   16.9462 C   0  0  0  0  0  0  0  0  0  0  0  0
   12.1979   20.5689   17.2671 C   0  0  0  0  0  0  0  0  0  0  0  0
   13.1305   20.5769   18.2598 C   0  0  0  0  0  0  0  0  0  0  0  0
   13.0202   19.2195   19.0972 C   0  0  0  0  0  0  0  0  0  0  0  0
   11.8851   18.2756   18.5459 C   0  0  0  0  0  0  0  0  0  0  0  0
   11.1729   18.6891   17.4871 C   0  0  0  0  0  0  0  0  0  0  0  0
   10.4444   19.9892   15.7873 C   0  0  0  0  0  0  0  0  0  0  0  0
   10.9493   19.6694   14.6795 O   0  0  0  0  0  0  0  0  0  0  0  0
    9.3350   20.4568   16.1499 O   0  0  0  0  0  0  0  0  0  0  0  0
   11.8218   19.3298   14.6429 H   0  0  0  0  0  0  0  0  0  0  0  0
 29 27  2  0  0  0
 27 28  1  0  0  0
 27 21  1  0  0  0
 21 26  2  0  0  0
 21 22  1  0  0  0
 26 25  1  0  0  0
 19 22  1  0  0  0
 19 18  1  0  0  0
 22 23  2  0  0  0
 18  1  1  0  0  0
  1  2  1  0  0  0
  1  4  1  0  0  0
 25 24  2  0  0  0
  5  4  1  0  0  0
 23 24  1  0  0  0
  4  7  1  0  0  0
  7  8  1  0  0  0
  7 10  1  0  0  0
 10 11  1  0  0  0
 11 12  1  0  0  0
 13 12  2  0  0  0
 12 15  1  0  0  0
 12 14  1  0  0  0
 14 16  1  0  0  0
 15 17  1  0  0  0
  8  9  1  0  0  0
  5  6  1  0  0  0
  2  3  1  0  0  0
 19 20  1  0  0  0
 28 30  1  0  0  0
M  END
> <minimizedAffinity>
-7.24954

$$$$
4EWN_0VR_D_400


 30 30  0  0  0  0  0  0  0  0999 V2000
   10.1244   19.9159   15.9946 C   0  0  0  0  0  0  0  0  0  0  0  0
    9.5564   20.6557   17.0024 O   0  0  0  0  0  0  0  0  0  0  0  0
    8.8716   20.1292   17.4435 H   0  0  0  0  0  0  0  0  0  0  0  0
    9.1554   19.5662   14.8813 C   0  0  0  0  0  0  0  0  0  0  0  0
    9.6749   18.4675   14.2279 O   0  0  0  0  0  0  0  0  0  0  0  0
   10.5337   18.6980   13.8404 H   0  0  0  0  0  0  0  0  0  0  0  0
    8.9442   20.6554   13.8382 C   0  0  0  0  0  0  0  0  0  0  0  0
    9.2753   20.2132   12.5766 O   0  0  0  0  0  0  0  0  0  0  0  0
   10.2210   19.9998   12.5467 H   0  0  0  0  0  0  0  0  0  0  0  0
    9.7371   21.9260   14.1381 C   0  0  0  0  0  0  0  0  0  0  0  0
    8.9054   22.9012   14.7087 O   0  0  0  0  0  0  0  0  0  0  0  0
    9.4816   24.0582   15.6077 P   0  0  0  0  0  0  0  0  0  0  0  0
    8.3882   24.8365   16.2999 O   0  0  0  0  0  0  0  0  0  0  0  0
   10.4015   23.3885   16.6181 O   0  0  0  0  0  0  0  0  0  0  0  0
   10.2539   25.0851   14.8019 O   0  0  0  0  0  0  0  0  0  0  0  0
    9.8994   22.7340   17.1283 H   0  0  0  0  0  0  0  0  0  0  0  0
    9.6600   25.5064   14.1611 H   0  0  0  0  0  0  0  0  0  0  0  0
   10.7184   18.6891   16.6298 C   0  0  0  0  0  0  0  0  0  0  0  0
   11.0507   18.9972   18.0273 N   0  0  0  0  0  0  0  0  0  0  0  0
   10.3592   19.3827   18.6126 H   0  0  0  0  0  0  0  0  0  0  0  0
   12.9917   19.7197   18.9918 C   0  0  0  0  0  0  0  0  0  0  0  0
   12.3802   18.7453   18.5665 C   0  0  0  0  0  0  0  0  0  0  0  0
   12.7115   17.4256   18.5039 C   0  0  0  0  0  0  0  0  0  0  0  0
   14.1754   17.2205   19.1128 C   0  0  0  0  0  0  0  0  0  0  0  0
   14.8070   18.5782   19.6035 C   0  0  0  0  0  0  0  0  0  0  0  0
   14.0853   19.7008   19.4678 C   0  0  0  0  0  0  0  0  0  0  0  0
   12.3757   21.0822   18.9396 C   0  0  0  0  0  0  0  0  0  0  0  0
   11.9002   21.4545   20.0440 O   0  0  0  0  0  0  0  0  0  0  0  0
   12.4712   21.6027   17.7991 O   0  0  0  0  0  0  0  0  0  0  0  0
   11.9389   20.8846   20.7868 H   0  0  0  0  0  0  0  0  0  0  0  0
 29 27  2  0  0  0
 27 28  1  0  0  0
 27 21  1  0  0  0
 21 26  2  0  0  0
 21 22  1  0  0  0
 26 25  1  0  0  0
 19 22  1  0  0  0
 19 18  1  0  0  0
 22 23  2  0  0  0
 18  1  1  0  0  0
  1  2  1  0  0  0
  1  4  1  0  0  0
 25 24  2  0  0  0
  5  4  1  0  0  0
 23 24  1  0  0  0
  4  7  1  0  0  0
  7  8  1  0  0  0
  7 10  1  0  0  0
 10 11  1  0  0  0
 11 12  1  0  0  0
 13 12  2  0  0  0
 12 15  1  0  0  0
 12 14  1  0  0  0
 14 16  1  0  0  0
 15 17  1  0  0  0
  8  9  1  0  0  0
  5  6  1  0  0  0
  2  3  1  0  0  0
 19 20  1  0  0  0
 28 30  1  0  0  0
M  END
> <minimizedAffinity>
-7.23290

$$$$
4EWN_0VR_D_400


 30 30  0  0  0  0  0  0  0  0999 V2000
   17.8748   19.0618   20.9246 C   0  0  0  0  0  0  0  0  0  0  0  0
   18.9578   19.3425   20.1285 O   0  0  0  0  0  0  0  0  0  0  0  0
   19.2812   18.5234   19.7218 H   0  0  0  0  0  0  0  0  0  0  0  0
   18.2077   18.1711   22.1063 C   0  0  0  0  0  0  0  0  0  0  0  0
   17.0076   17.7674   22.6548 O   0  0  0  0  0  0  0  0  0  0  0  0
   16.5188   18.5437   22.9701 H   0  0  0  0  0  0  0  0  0  0  0  0
   19.0112   18.8370   23.2154 C   0  0  0  0  0  0  0  0  0  0  0  0
   19.7194   19.9191   22.7418 O   0  0  0  0  0  0  0  0  0  0  0  0
   20.3708   19.6185   22.0889 H   0  0  0  0  0  0  0  0  0  0  0  0
   19.9802   17.8778   23.9039 C   0  0  0  0  0  0  0  0  0  0  0  0
   19.2963   16.7532   24.3896 O   0  0  0  0  0  0  0  0  0  0  0  0
   19.3826   16.3203   25.9010 P   0  0  0  0  0  0  0  0  0  0  0  0
   18.0765   15.7528   26.4037 O   0  0  0  0  0  0  0  0  0  0  0  0
   20.4961   15.2862   25.9803 O   0  0  0  0  0  0  0  0  0  0  0  0
   19.6905   17.4875   26.8190 O   0  0  0  0  0  0  0  0  0  0  0  0
   20.2908   14.5440   25.3904 H   0  0  0  0  0  0  0  0  0  0  0  0
   18.9760   18.1410   26.7619 H   0  0  0  0  0  0  0  0  0  0  0  0
   16.8234   18.4522   20.0389 C   0  0  0  0  0  0  0  0  0  0  0  0
   15.5071   18.9505   20.4602 N   0  0  0  0  0  0  0  0  0  0  0  0
   15.2013   18.7828   21.3809 H   0  0  0  0  0  0  0  0  0  0  0  0
   13.6410   19.1030   19.1510 C   0  0  0  0  0  0  0  0  0  0  0  0
   14.6443   19.6871   19.5465 C   0  0  0  0  0  0  0  0  0  0  0  0
   15.1225   20.9372   19.2937 C   0  0  0  0  0  0  0  0  0  0  0  0
   14.1295   21.6883   18.2909 C   0  0  0  0  0  0  0  0  0  0  0  0
   12.9024   20.7856   17.8878 C   0  0  0  0  0  0  0  0  0  0  0  0
   12.8250   19.5502   18.4046 C   0  0  0  0  0  0  0  0  0  0  0  0
   13.3517   17.7055   19.6003 C   0  0  0  0  0  0  0  0  0  0  0  0
   13.8611   16.8289   18.8544 O   0  0  0  0  0  0  0  0  0  0  0  0
   12.6676   17.6782   20.6549 O   0  0  0  0  0  0  0  0  0  0  0  0
   14.3470   17.0846   18.0951 H   0  0  0  0  0  0  0  0  0  0  0  0
 29 27  2  0  0  0
 27 28  1  0  0  0
 27 21  1  0  0  0
 21 26  2  0  0  0
 21 22  1  0  0  0
 26 25  1  0  0  0
 19 22  1  0  0  0
 19 18  1  0  0  0
 22 23  2  0  0  0
 18  1  1  0  0  0
  1  2  1  0  0  0
  1  4  1  0  0  0
 25 24  2  0  0  0
  5  4  1  0  0  0
 23 24  1  0  0  0
  4  7  1  0  0  0
  7  8  1  0  0  0
  7 10  1  0  0  0
 10 11  1  0  0  0
 11 12  1  0  0  0
 13 12  2  0  0  0
 12 15  1  0  0  0
 12 14  1  0  0  0
 14 16  1  0  0  0
 15 17  1  0  0  0
  8  9  1  0  0  0
  5  6  1  0  0  0
  2  3  1  0  0  0
 19 20  1  0  0  0
 28 30  1  0  0  0
M  END
> <minimizedAffinity>
-7.16265

$$$$
4EWN_0VR_D_400


 30 30  0  0  0  0  0  0  0  0999 V2000
   10.3868   20.0928   17.6039 C   0  0  0  0  0  0  0  0  0  0  0  0
    9.7087   21.2570   17.8691 O   0  0  0  0  0  0  0  0  0  0  0  0
   10.3385   21.9925   17.9251 H   0  0  0  0  0  0  0  0  0  0  0  0
   11.3363   19.6802   18.7124 C   0  0  0  0  0  0  0  0  0  0  0  0
   11.0870   20.5124   19.7844 O   0  0  0  0  0  0  0  0  0  0  0  0
   11.2739   21.4301   19.5316 H   0  0  0  0  0  0  0  0  0  0  0  0
   12.8170   19.8031   18.3784 C   0  0  0  0  0  0  0  0  0  0  0  0
   13.5057   18.6613   18.7228 O   0  0  0  0  0  0  0  0  0  0  0  0
   13.4621   18.5348   19.6835 H   0  0  0  0  0  0  0  0  0  0  0  0
   13.4804   21.0009   19.0552 C   0  0  0  0  0  0  0  0  0  0  0  0
   13.8672   21.9530   18.1000 O   0  0  0  0  0  0  0  0  0  0  0  0
   13.0950   23.3143   17.9277 P   0  0  0  0  0  0  0  0  0  0  0  0
   11.6662   23.2204   18.4075 O   0  0  0  0  0  0  0  0  0  0  0  0
   13.8755   24.3459   18.7292 O   0  0  0  0  0  0  0  0  0  0  0  0
   13.0014   23.7453   16.4767 O   0  0  0  0  0  0  0  0  0  0  0  0
   13.9301   24.0622   19.6551 H   0  0  0  0  0  0  0  0  0  0  0  0
   12.5028   23.0823   15.9740 H   0  0  0  0  0  0  0  0  0  0  0  0
   11.1007   20.2874   16.2947 C   0  0  0  0  0  0  0  0  0  0  0  0
   10.7907   21.6300   15.7851 N   0  0  0  0  0  0  0  0  0  0  0  0
   11.2371   22.4112   16.1846 H   0  0  0  0  0  0  0  0  0  0  0  0
    9.3536   22.9537   14.6009 C   0  0  0  0  0  0  0  0  0  0  0  0
    9.8376   21.8313   14.7021 C   0  0  0  0  0  0  0  0  0  0  0  0
    9.6557   20.6979   13.9689 C   0  0  0  0  0  0  0  0  0  0  0  0
    8.6047   20.9895   12.8000 C   0  0  0  0  0  0  0  0  0  0  0  0
    8.0878   22.4779   12.8278 C   0  0  0  0  0  0  0  0  0  0  0  0
    8.5625   23.2981   13.7771 C   0  0  0  0  0  0  0  0  0  0  0  0
    9.7410   24.0347   15.5600 C   0  0  0  0  0  0  0  0  0  0  0  0
    9.1821   23.9260   16.6826 O   0  0  0  0  0  0  0  0  0  0  0  0
   10.5713   24.8364   15.0612 O   0  0  0  0  0  0  0  0  0  0  0  0
    8.5768   23.2280   16.8389 H   0  0  0  0  0  0  0  0  0  0  0  0
 29 27  2  0  0  0
 27 28  1  0  0  0
 27 21  1  0  0  0
 21 26  2  0  0  0
 21 22  1  0  0  0
 26 25  1  0  0  0
 19 22  1  0  0  0
 19 18  1  0  0  0
 22 23  2  0  0  0
 18  1  1  0  0  0
  1  2  1  0  0  0
  1  4  1  0  0  0
 25 24  2  0  0  0
  5  4  1  0  0  0
 23 24  1  0  0  0
  4  7  1  0  0  0
  7  8  1  0  0  0
  7 10  1  0  0  0
 10 11  1  0  0  0
 11 12  1  0  0  0
 13 12  2  0  0  0
 12 15  1  0  0  0
 12 14  1  0  0  0
 14 16  1  0  0  0
 15 17  1  0  0  0
  8  9  1  0  0  0
  5  6  1  0  0  0
  2  3  1  0  0  0
 19 20  1  0  0  0
 28 30  1  0  0  0
M  END
> <minimizedAffinity>
-7.08757

$$$$
4EWN_0VR_D_400


 30 30  0  0  0  0  0  0  0  0999 V2000
   11.0021   23.2846   16.5844 C   0  0  0  0  0  0  0  0  0  0  0  0
   10.2440   22.6142   17.5126 O   0  0  0  0  0  0  0  0  0  0  0  0
   10.0997   21.7025   17.2145 H   0  0  0  0  0  0  0  0  0  0  0  0
   10.3147   23.4413   15.2416 C   0  0  0  0  0  0  0  0  0  0  0  0
    8.9913   23.0971   15.4259 O   0  0  0  0  0  0  0  0  0  0  0  0
    8.9342   22.1700   15.7054 H   0  0  0  0  0  0  0  0  0  0  0  0
   10.8606   22.5602   14.1258 C   0  0  0  0  0  0  0  0  0  0  0  0
   11.1837   23.3031   13.0121 O   0  0  0  0  0  0  0  0  0  0  0  0
   10.3815   23.7146   12.6541 H   0  0  0  0  0  0  0  0  0  0  0  0
    9.8908   21.4540   13.7151 C   0  0  0  0  0  0  0  0  0  0  0  0
   10.3885   20.1983   14.0943 O   0  0  0  0  0  0  0  0  0  0  0  0
    9.6356   19.2891   15.1362 P   0  0  0  0  0  0  0  0  0  0  0  0
   10.4060   18.0287   15.4500 O   0  0  0  0  0  0  0  0  0  0  0  0
    9.4489   20.1419   16.3825 O   0  0  0  0  0  0  0  0  0  0  0  0
    8.2890   18.8166   14.6229 O   0  0  0  0  0  0  0  0  0  0  0  0
   10.3146   20.4394   16.7034 H   0  0  0  0  0  0  0  0  0  0  0  0
    8.4177   18.2742   13.8290 H   0  0  0  0  0  0  0  0  0  0  0  0
   12.3072   22.5469   16.4660 C   0  0  0  0  0  0  0  0  0  0  0  0
   12.1949   21.2734   17.1899 N   0  0  0  0  0  0  0  0  0  0  0  0
   11.5145   20.6193   16.9101 H   0  0  0  0  0  0  0  0  0  0  0  0
   12.6531   20.1216   19.1090 C   0  0  0  0  0  0  0  0  0  0  0  0
   13.0677   20.9569   18.3124 C   0  0  0  0  0  0  0  0  0  0  0  0
   14.2294   21.6666   18.2678 C   0  0  0  0  0  0  0  0  0  0  0  0
   15.1379   21.2693   19.5218 C   0  0  0  0  0  0  0  0  0  0  0  0
   14.4441   20.1893   20.4358 C   0  0  0  0  0  0  0  0  0  0  0  0
   13.2310   19.7405   20.0805 C   0  0  0  0  0  0  0  0  0  0  0  0
   11.3140   19.4846   18.9101 C   0  0  0  0  0  0  0  0  0  0  0  0
   11.3679   18.4093   18.2580 O   0  0  0  0  0  0  0  0  0  0  0  0
   10.3905   20.1417   19.4543 O   0  0  0  0  0  0  0  0  0  0  0  0
   12.1908   18.0970   17.9366 H   0  0  0  0  0  0  0  0  0  0  0  0
 29 27  2  0  0  0
 27 28  1  0  0  0
 27 21  1  0  0  0
 21 26  2  0  0  0
 21 22  1  0  0  0
 26 25  1  0  0  0
 19 22  1  0  0  0
 19 18  1  0  0  0
 22 23  2  0  0  0
 18  1  1  0  0  0
  1  2  1  0  0  0
  1  4  1  0  0  0
 25 24  2  0  0  0
  5  4  1  0  0  0
 23 24  1  0  0  0
  4  7  1  0  0  0
  7  8  1  0  0  0
  7 10  1  0  0  0
 10 11  1  0  0  0
 11 12  1  0  0  0
 13 12  2  0  0  0
 12 15  1  0  0  0
 12 14  1  0  0  0
 14 16  1  0  0  0
 15 17  1  0  0  0
  8  9  1  0  0  0
  5  6  1  0  0  0
  2  3  1  0  0  0
 19 20  1  0  0  0
 28 30  1  0  0  0
M  END
> <minimizedAffinity>
-7.04728

$$$$
4EWN_0VR_D_400


 30 30  0  0  0  0  0  0  0  0999 V2000
   10.5276   19.8549   17.7771 C   0  0  0  0  0  0  0  0  0  0  0  0
   10.9624   18.7256   18.4260 O   0  0  0  0  0  0  0  0  0  0  0  0
   11.9017   18.8216   18.6480 H   0  0  0  0  0  0  0  0  0  0  0  0
   11.2011   20.0793   16.4368 C   0  0  0  0  0  0  0  0  0  0  0  0
   12.1138   21.0992   16.6122 O   0  0  0  0  0  0  0  0  0  0  0  0
   11.6475   21.9090   16.8727 H   0  0  0  0  0  0  0  0  0  0  0  0
   10.2713   20.4935   15.3040 C   0  0  0  0  0  0  0  0  0  0  0  0
   10.4303   19.6828   14.2022 O   0  0  0  0  0  0  0  0  0  0  0  0
   11.3302   19.7830   13.8541 H   0  0  0  0  0  0  0  0  0  0  0  0
   10.4666   21.9471   14.8777 C   0  0  0  0  0  0  0  0  0  0  0  0
    9.8580   22.8149   15.7970 O   0  0  0  0  0  0  0  0  0  0  0  0
    9.1745   24.1579   15.3409 P   0  0  0  0  0  0  0  0  0  0  0  0
   10.1859   25.1826   14.8853 O   0  0  0  0  0  0  0  0  0  0  0  0
    8.2251   23.7853   14.2115 O   0  0  0  0  0  0  0  0  0  0  0  0
    8.4077   24.8264   16.4657 O   0  0  0  0  0  0  0  0  0  0  0  0
    8.7239   23.3587   13.4973 H   0  0  0  0  0  0  0  0  0  0  0  0
    9.0204   25.0601   17.1804 H   0  0  0  0  0  0  0  0  0  0  0  0
   10.7408   21.0112   18.7147 C   0  0  0  0  0  0  0  0  0  0  0  0
   11.6062   20.5696   19.8167 N   0  0  0  0  0  0  0  0  0  0  0  0
   11.3648   19.7610   20.3237 H   0  0  0  0  0  0  0  0  0  0  0  0
   13.8226   20.6311   20.3675 C   0  0  0  0  0  0  0  0  0  0  0  0
   12.8134   21.3012   20.1760 C   0  0  0  0  0  0  0  0  0  0  0  0
   12.5957   22.6447   20.2296 C   0  0  0  0  0  0  0  0  0  0  0  0
   13.9571   23.3839   20.6243 C   0  0  0  0  0  0  0  0  0  0  0  0
   15.1422   22.3668   20.8349 C   0  0  0  0  0  0  0  0  0  0  0  0
   14.8953   21.0592   20.6661 C   0  0  0  0  0  0  0  0  0  0  0  0
   13.7789   19.1414   20.2348 C   0  0  0  0  0  0  0  0  0  0  0  0
   13.5899   18.5509   21.3302 O   0  0  0  0  0  0  0  0  0  0  0  0
   13.9205   18.7670   19.0429 O   0  0  0  0  0  0  0  0  0  0  0  0
   13.5114   19.0459   22.1218 H   0  0  0  0  0  0  0  0  0  0  0  0
 29 27  2  0  0  0
 27 28  1  0  0  0
 27 21  1  0  0  0
 21 26  2  0  0  0
 21 22  1  0  0  0
 26 25  1  0  0  0
 19 22  1  0  0  0
 19 18  1  0  0  0
 22 23  2  0  0  0
 18  1  1  0  0  0
  1  2  1  0  0  0
  1  4  1  0  0  0
 25 24  2  0  0  0
  5  4  1  0  0  0
 23 24  1  0  0  0
  4  7  1  0  0  0
  7  8  1  0  0  0
  7 10  1  0  0  0
 10 11  1  0  0  0
 11 12  1  0  0  0
 13 12  2  0  0  0
 12 15  1  0  0  0
 12 14  1  0  0  0
 14 16  1  0  0  0
 15 17  1  0  0  0
  8  9  1  0  0  0
  5  6  1  0  0  0
  2  3  1  0  0  0
 19 20  1  0  0  0
 28 30  1  0  0  0
M  END
> <minimizedAffinity>
-7.03845

$$$$
4EWN_0VR_D_400


 30 30  0  0  0  0  0  0  0  0999 V2000
   10.2534   20.5024   16.4755 C   0  0  0  0  0  0  0  0  0  0  0  0
    9.5016   21.0426   17.4896 O   0  0  0  0  0  0  0  0  0  0  0  0
    9.1894   20.3337   18.0735 H   0  0  0  0  0  0  0  0  0  0  0  0
    9.4631   19.5906   15.5565 C   0  0  0  0  0  0  0  0  0  0  0  0
   10.2353   18.4667   15.3457 O   0  0  0  0  0  0  0  0  0  0  0  0
   11.0623   18.7203   14.9067 H   0  0  0  0  0  0  0  0  0  0  0  0
    9.1315   20.1750   14.1899 C   0  0  0  0  0  0  0  0  0  0  0  0
    9.3109   19.2457   13.1896 O   0  0  0  0  0  0  0  0  0  0  0  0
   10.2463   18.9923   13.1476 H   0  0  0  0  0  0  0  0  0  0  0  0
    9.9556   21.4181   13.8604 C   0  0  0  0  0  0  0  0  0  0  0  0
    9.1574   22.5698   13.9309 O   0  0  0  0  0  0  0  0  0  0  0  0
    9.5966   23.8321   14.7631 P   0  0  0  0  0  0  0  0  0  0  0  0
   11.0988   23.9527   14.8603 O   0  0  0  0  0  0  0  0  0  0  0  0
    8.9951   25.0357   14.0523 O   0  0  0  0  0  0  0  0  0  0  0  0
    9.1068   23.7769   16.1974 O   0  0  0  0  0  0  0  0  0  0  0  0
    9.3136   25.0629   13.1365 H   0  0  0  0  0  0  0  0  0  0  0  0
    9.4950   23.0072   16.6422 H   0  0  0  0  0  0  0  0  0  0  0  0
   11.4109   19.7886   17.1174 C   0  0  0  0  0  0  0  0  0  0  0  0
   12.5338   20.7281   17.2390 N   0  0  0  0  0  0  0  0  0  0  0  0
   12.9134   21.1320   16.4254 H   0  0  0  0  0  0  0  0  0  0  0  0
   12.9865   22.2457   18.8856 C   0  0  0  0  0  0  0  0  0  0  0  0
   13.0980   21.0754   18.5362 C   0  0  0  0  0  0  0  0  0  0  0  0
   13.6612   19.9975   19.1497 C   0  0  0  0  0  0  0  0  0  0  0  0
   14.2554   20.4472   20.5641 C   0  0  0  0  0  0  0  0  0  0  0  0
   14.0247   21.9812   20.8413 C   0  0  0  0  0  0  0  0  0  0  0  0
   13.3852   22.7061   19.9113 C   0  0  0  0  0  0  0  0  0  0  0  0
   12.3046   23.2391   17.9987 C   0  0  0  0  0  0  0  0  0  0  0  0
   13.0636   23.7213   17.1179 O   0  0  0  0  0  0  0  0  0  0  0  0
   11.0915   23.3855   18.2951 O   0  0  0  0  0  0  0  0  0  0  0  0
   13.9631   23.4615   17.0813 H   0  0  0  0  0  0  0  0  0  0  0  0
 29 27  2  0  0  0
 27 28  1  0  0  0
 27 21  1  0  0  0
 21 26  2  0  0  0
 21 22  1  0  0  0
 26 25  1  0  0  0
 19 22  1  0  0  0
 19 18  1  0  0  0
 22 23  2  0  0  0
 18  1  1  0  0  0
  1  2  1  0  0  0
  1  4  1  0  0  0
 25 24  2  0  0  0
  5  4  1  0  0  0
 23 24  1  0  0  0
  4  7  1  0  0  0
  7  8  1  0  0  0
  7 10  1  0  0  0
 10 11  1  0  0  0
 11 12  1  0  0  0
 13 12  2  0  0  0
 12 15  1  0  0  0
 12 14  1  0  0  0
 14 16  1  0  0  0
 15 17  1  0  0  0
  8  9  1  0  0  0
  5  6  1  0  0  0
  2  3  1  0  0  0
 19 20  1  0  0  0
 28 30  1  0  0  0
M  END
> <minimizedAffinity>
-6.86403

$$$$
4EWN_0VR_D_400


 30 30  0  0  0  0  0  0  0  0999 V2000
   10.7197   23.2707   16.3697 C   0  0  0  0  0  0  0  0  0  0  0  0
    9.8887   22.3185   16.9065 O   0  0  0  0  0  0  0  0  0  0  0  0
   10.2587   21.4370   16.7427 H   0  0  0  0  0  0  0  0  0  0  0  0
   10.8313   23.1937   14.8590 C   0  0  0  0  0  0  0  0  0  0  0  0
   11.7565   24.1432   14.4763 O   0  0  0  0  0  0  0  0  0  0  0  0
   11.4377   25.0245   14.7265 H   0  0  0  0  0  0  0  0  0  0  0  0
    9.5446   23.4823   14.0972 C   0  0  0  0  0  0  0  0  0  0  0  0
    8.5703   23.9857   14.9302 O   0  0  0  0  0  0  0  0  0  0  0  0
    8.3382   23.3196   15.5960 H   0  0  0  0  0  0  0  0  0  0  0  0
    8.9914   22.2527   13.3797 C   0  0  0  0  0  0  0  0  0  0  0  0
    8.7303   21.2241   14.2975 O   0  0  0  0  0  0  0  0  0  0  0  0
    9.1923   19.7422   14.0342 P   0  0  0  0  0  0  0  0  0  0  0  0
   10.6549   19.5394   14.3509 O   0  0  0  0  0  0  0  0  0  0  0  0
    8.3143   18.8643   14.9140 O   0  0  0  0  0  0  0  0  0  0  0  0
    9.0391   19.3395   12.5801 O   0  0  0  0  0  0  0  0  0  0  0  0
    8.4187   19.1289   15.8414 H   0  0  0  0  0  0  0  0  0  0  0  0
    9.6019   19.9039   12.0273 H   0  0  0  0  0  0  0  0  0  0  0  0
   12.0565   23.1178   17.0413 C   0  0  0  0  0  0  0  0  0  0  0  0
   11.8655   22.4058   18.3121 N   0  0  0  0  0  0  0  0  0  0  0  0
   11.3318   21.5786   18.3247 H   0  0  0  0  0  0  0  0  0  0  0  0
   13.1319   22.1004   20.1889 C   0  0  0  0  0  0  0  0  0  0  0  0
   12.4480   22.8961   19.5539 C   0  0  0  0  0  0  0  0  0  0  0  0
   12.1208   24.1973   19.7889 C   0  0  0  0  0  0  0  0  0  0  0  0
   12.7932   24.6702   21.1601 C   0  0  0  0  0  0  0  0  0  0  0  0
   13.6281   23.5180   21.8372 C   0  0  0  0  0  0  0  0  0  0  0  0
   13.6848   22.3277   21.2213 C   0  0  0  0  0  0  0  0  0  0  0  0
   13.3326   20.7052   19.6871 C   0  0  0  0  0  0  0  0  0  0  0  0
   12.4357   19.9076   20.0663 O   0  0  0  0  0  0  0  0  0  0  0  0
   14.3550   20.6042   18.9623 O   0  0  0  0  0  0  0  0  0  0  0  0
   11.7454   20.2093   20.6234 H   0  0  0  0  0  0  0  0  0  0  0  0
 29 27  2  0  0  0
 27 28  1  0  0  0
 27 21  1  0  0  0
 21 26  2  0  0  0
 21 22  1  0  0  0
 26 25  1  0  0  0
 19 22  1  0  0  0
 19 18  1  0  0  0
 22 23  2  0  0  0
 18  1  1  0  0  0
  1  2  1  0  0  0
  1  4  1  0  0  0
 25 24  2  0  0  0
  5  4  1  0  0  0
 23 24  1  0  0  0
  4  7  1  0  0  0
  7  8  1  0  0  0
  7 10  1  0  0  0
 10 11  1  0  0  0
 11 12  1  0  0  0
 13 12  2  0  0  0
 12 15  1  0  0  0
 12 14  1  0  0  0
 14 16  1  0  0  0
 15 17  1  0  0  0
  8  9  1  0  0  0
  5  6  1  0  0  0
  2  3  1  0  0  0
 19 20  1  0  0  0
 28 30  1  0  0  0
M  END
> <minimizedAffinity>
-6.85833

$$$$
