5WUK_73K_A_502


 27 30  0  0  0  0  0  0  0  0999 V2000
   17.5688  -19.1565  -21.0431 C   0  0  0  0  0  0  0  0  0  0  0  0
   18.4842  -20.0333  -21.5171 C   0  0  0  0  0  0  0  0  0  0  0  0
   19.8662  -19.5191  -21.6563 C   0  0  0  0  0  0  0  0  0  0  0  0
   21.4397  -18.2066  -21.5050 C   0  0  0  0  0  0  0  0  0  0  0  0
   20.1488  -18.2900  -21.3085 N   0  0  0  0  0  0  0  0  0  0  0  0
   19.2545  -17.4320  -20.8162 C   0  0  0  0  0  0  0  0  0  0  0  0
   18.0279  -17.8350  -20.6808 N   0  0  0  0  0  0  0  0  0  0  0  0
   20.8674  -20.1982  -22.0618 N   0  0  0  0  0  0  0  0  0  0  0  0
   21.9644  -19.2830  -21.9527 N   0  0  0  0  0  0  0  0  0  0  0  0
   18.3455  -21.8221  -23.2894 C   0  0  0  0  0  0  0  0  0  0  0  0
   17.9085  -23.0731  -23.7535 C   0  0  0  0  0  0  0  0  0  0  0  0
   17.1593  -23.8998  -22.8851 C   0  0  0  0  0  0  0  0  0  0  0  0
   16.8380  -23.4788  -21.5802 C   0  0  0  0  0  0  0  0  0  0  0  0
   17.3119  -22.2465  -21.1039 C   0  0  0  0  0  0  0  0  0  0  0  0
   18.0653  -21.4156  -21.9645 C   0  0  0  0  0  0  0  0  0  0  0  0
   15.2543  -25.7933  -22.2584 C   0  0  0  0  0  0  0  0  0  0  0  0
   16.5482  -25.4686  -23.4796 S   0  0  0  0  0  0  0  0  0  0  0  0
   17.5967  -26.4600  -23.3221 O   0  0  0  0  0  0  0  0  0  0  0  0
   15.9869  -25.2907  -24.8077 O   0  0  0  0  0  0  0  0  0  0  0  0
   19.6222  -16.2089  -20.4620 N   0  0  0  0  0  0  0  0  0  0  0  0
   20.5605  -15.9596  -20.6255 H   0  0  0  0  0  0  0  0  0  0  0  0
   18.7607  -15.1924  -19.8492 C   0  0  0  0  0  0  0  0  0  0  0  0
   18.9488  -15.1055  -18.3424 C   0  0  0  0  0  0  0  0  0  0  0  0
   20.0231  -14.6230  -17.6964 C   0  0  0  0  0  0  0  0  0  0  0  0
   19.6445  -14.7848  -16.2726 C   0  0  0  0  0  0  0  0  0  0  0  0
   18.4199  -15.3488  -16.3405 C   0  0  0  0  0  0  0  0  0  0  0  0
   17.9415  -15.5662  -17.5798 O   0  0  0  0  0  0  0  0  0  0  0  0
 22 23  1  0  0  0
 22 20  1  0  0  0
 27 23  1  0  0  0
 27 26  1  0  0  0
  7  1  1  0  0  0
  7  6  2  0  0  0
 23 24  2  0  0  0
  1  2  2  0  0  0
 26 25  2  0  0  0
 20  6  1  0  0  0
  6  5  1  0  0  0
 16 17  1  0  0  0
 24 25  1  0  0  0
  2 15  1  0  0  0
  2  3  1  0  0  0
 14 15  2  0  0  0
 14 13  1  0  0  0
 15 10  1  0  0  0
 13 12  2  0  0  0
  5  3  1  0  0  0
  5  4  1  0  0  0
 10 11  2  0  0  0
 12 11  1  0  0  0
 12 17  1  0  0  0
 19 17  2  0  0  0
  3  8  2  0  0  0
 17 18  2  0  0  0
  4  9  2  0  0  0
  8  9  1  0  0  0
 20 21  1  0  0  0
M  END
> <minimizedAffinity>
-8.80652

$$$$
5WUK_73K_A_502


 27 30  0  0  0  0  0  0  0  0999 V2000
   18.7910  -20.8827  -23.4788 C   0  0  0  0  0  0  0  0  0  0  0  0
   18.4567  -20.7209  -22.1774 C   0  0  0  0  0  0  0  0  0  0  0  0
   17.9725  -21.9317  -21.4749 C   0  0  0  0  0  0  0  0  0  0  0  0
   17.5068  -23.9112  -21.1813 C   0  0  0  0  0  0  0  0  0  0  0  0
   17.9086  -23.0764  -22.1052 N   0  0  0  0  0  0  0  0  0  0  0  0
   18.2624  -23.2444  -23.3799 C   0  0  0  0  0  0  0  0  0  0  0  0
   18.6880  -22.2105  -24.0396 N   0  0  0  0  0  0  0  0  0  0  0  0
   17.6338  -21.9842  -20.2458 N   0  0  0  0  0  0  0  0  0  0  0  0
   17.3125  -23.3655  -20.0415 N   0  0  0  0  0  0  0  0  0  0  0  0
   19.7313  -18.6860  -21.4068 C   0  0  0  0  0  0  0  0  0  0  0  0
   19.8029  -17.4430  -20.7575 C   0  0  0  0  0  0  0  0  0  0  0  0
   18.6218  -16.8877  -20.2139 C   0  0  0  0  0  0  0  0  0  0  0  0
   17.3922  -17.5685  -20.3029 C   0  0  0  0  0  0  0  0  0  0  0  0
   17.3148  -18.7902  -20.9893 C   0  0  0  0  0  0  0  0  0  0  0  0
   18.4904  -19.3504  -21.5394 C   0  0  0  0  0  0  0  0  0  0  0  0
   17.6740  -15.7196  -17.9021 C   0  0  0  0  0  0  0  0  0  0  0  0
   18.7072  -15.3354  -19.3358 S   0  0  0  0  0  0  0  0  0  0  0  0
   18.0412  -14.3200  -20.1313 O   0  0  0  0  0  0  0  0  0  0  0  0
   20.0828  -15.0839  -18.9421 O   0  0  0  0  0  0  0  0  0  0  0  0
   18.1935  -24.4422  -23.9432 N   0  0  0  0  0  0  0  0  0  0  0  0
   18.9589  -25.0456  -23.8047 H   0  0  0  0  0  0  0  0  0  0  0  0
   17.0827  -24.9517  -24.7539 C   0  0  0  0  0  0  0  0  0  0  0  0
   16.8660  -24.1351  -26.0186 C   0  0  0  0  0  0  0  0  0  0  0  0
   15.7597  -23.4481  -26.3481 C   0  0  0  0  0  0  0  0  0  0  0  0
   16.1222  -22.8605  -27.6596 C   0  0  0  0  0  0  0  0  0  0  0  0
   17.3729  -23.3226  -27.8705 C   0  0  0  0  0  0  0  0  0  0  0  0
   17.8813  -24.1047  -26.8999 O   0  0  0  0  0  0  0  0  0  0  0  0
 22 23  1  0  0  0
 22 20  1  0  0  0
 27 23  1  0  0  0
 27 26  1  0  0  0
  7  1  1  0  0  0
  7  6  2  0  0  0
 23 24  2  0  0  0
  1  2  2  0  0  0
 26 25  2  0  0  0
 20  6  1  0  0  0
  6  5  1  0  0  0
 16 17  1  0  0  0
 24 25  1  0  0  0
  2 15  1  0  0  0
  2  3  1  0  0  0
 14 15  2  0  0  0
 14 13  1  0  0  0
 15 10  1  0  0  0
 13 12  2  0  0  0
  5  3  1  0  0  0
  5  4  1  0  0  0
 10 11  2  0  0  0
 12 11  1  0  0  0
 12 17  1  0  0  0
 19 17  2  0  0  0
  3  8  2  0  0  0
 17 18  2  0  0  0
  4  9  2  0  0  0
  8  9  1  0  0  0
 20 21  1  0  0  0
M  END
> <minimizedAffinity>
-8.19161

$$$$
5WUK_73K_A_502


 27 30  0  0  0  0  0  0  0  0999 V2000
   19.9220  -18.8676  -21.4940 C   0  0  0  0  0  0  0  0  0  0  0  0
   18.6417  -19.2766  -21.3364 C   0  0  0  0  0  0  0  0  0  0  0  0
   17.7215  -18.3040  -20.7030 C   0  0  0  0  0  0  0  0  0  0  0  0
   17.0829  -16.5260  -19.8954 C   0  0  0  0  0  0  0  0  0  0  0  0
   18.1552  -17.1206  -20.3520 N   0  0  0  0  0  0  0  0  0  0  0  0
   19.4098  -16.7052  -20.5302 C   0  0  0  0  0  0  0  0  0  0  0  0
   20.2553  -17.5248  -21.0766 N   0  0  0  0  0  0  0  0  0  0  0  0
   16.4779  -18.4963  -20.4920 N   0  0  0  0  0  0  0  0  0  0  0  0
   16.0331  -17.2548  -19.9319 N   0  0  0  0  0  0  0  0  0  0  0  0
   17.5989  -21.4910  -20.7293 C   0  0  0  0  0  0  0  0  0  0  0  0
   17.2706  -22.8252  -21.0188 C   0  0  0  0  0  0  0  0  0  0  0  0
   17.6147  -23.3537  -22.2840 C   0  0  0  0  0  0  0  0  0  0  0  0
   18.2892  -22.5689  -23.2393 C   0  0  0  0  0  0  0  0  0  0  0  0
   18.5784  -21.2234  -22.9639 C   0  0  0  0  0  0  0  0  0  0  0  0
   18.2340  -20.6859  -21.7026 C   0  0  0  0  0  0  0  0  0  0  0  0
   15.8497  -24.8678  -23.7672 C   0  0  0  0  0  0  0  0  0  0  0  0
   17.2549  -25.0648  -22.6459 S   0  0  0  0  0  0  0  0  0  0  0  0
   16.7928  -25.7050  -21.4278 O   0  0  0  0  0  0  0  0  0  0  0  0
   18.3928  -25.6590  -23.3262 O   0  0  0  0  0  0  0  0  0  0  0  0
   19.7688  -15.4810  -20.1711 N   0  0  0  0  0  0  0  0  0  0  0  0
   20.6076  -15.1321  -20.5504 H   0  0  0  0  0  0  0  0  0  0  0  0
   19.0322  -14.5979  -19.2610 C   0  0  0  0  0  0  0  0  0  0  0  0
   19.3241  -14.8988  -17.7990 C   0  0  0  0  0  0  0  0  0  0  0  0
   20.5308  -14.9076  -17.2090 C   0  0  0  0  0  0  0  0  0  0  0  0
   20.2028  -15.2544  -15.8059 C   0  0  0  0  0  0  0  0  0  0  0  0
   18.8611  -15.4022  -15.8295 C   0  0  0  0  0  0  0  0  0  0  0  0
   18.2684  -15.1945  -17.0201 O   0  0  0  0  0  0  0  0  0  0  0  0
 22 23  1  0  0  0
 22 20  1  0  0  0
 27 23  1  0  0  0
 27 26  1  0  0  0
  7  1  1  0  0  0
  7  6  2  0  0  0
 23 24  2  0  0  0
  1  2  2  0  0  0
 26 25  2  0  0  0
 20  6  1  0  0  0
  6  5  1  0  0  0
 16 17  1  0  0  0
 24 25  1  0  0  0
  2 15  1  0  0  0
  2  3  1  0  0  0
 14 15  2  0  0  0
 14 13  1  0  0  0
 15 10  1  0  0  0
 13 12  2  0  0  0
  5  3  1  0  0  0
  5  4  1  0  0  0
 10 11  2  0  0  0
 12 11  1  0  0  0
 12 17  1  0  0  0
 19 17  2  0  0  0
  3  8  2  0  0  0
 17 18  2  0  0  0
  4  9  2  0  0  0
  8  9  1  0  0  0
 20 21  1  0  0  0
M  END
> <minimizedAffinity>
-8.16967

$$$$
5WUK_73K_A_502


 27 30  0  0  0  0  0  0  0  0999 V2000
   18.2339  -21.5668  -22.2323 C   0  0  0  0  0  0  0  0  0  0  0  0
   19.2085  -20.6288  -22.1904 C   0  0  0  0  0  0  0  0  0  0  0  0
   20.5311  -21.0412  -22.7145 C   0  0  0  0  0  0  0  0  0  0  0  0
   21.9406  -22.2334  -23.6163 C   0  0  0  0  0  0  0  0  0  0  0  0
   20.6996  -22.2435  -23.2020 N   0  0  0  0  0  0  0  0  0  0  0  0
   19.7342  -23.1610  -23.2689 C   0  0  0  0  0  0  0  0  0  0  0  0
   18.5583  -22.8481  -22.8164 N   0  0  0  0  0  0  0  0  0  0  0  0
   21.5629  -20.2935  -22.7806 N   0  0  0  0  0  0  0  0  0  0  0  0
   22.5440  -21.1248  -23.4125 N   0  0  0  0  0  0  0  0  0  0  0  0
   20.0480  -18.4192  -21.3114 C   0  0  0  0  0  0  0  0  0  0  0  0
   19.8527  -17.1942  -20.6535 C   0  0  0  0  0  0  0  0  0  0  0  0
   18.5545  -16.8599  -20.2046 C   0  0  0  0  0  0  0  0  0  0  0  0
   17.4717  -17.7400  -20.3951 C   0  0  0  0  0  0  0  0  0  0  0  0
   17.6606  -18.9445  -21.0904 C   0  0  0  0  0  0  0  0  0  0  0  0
   18.9548  -19.2845  -21.5462 C   0  0  0  0  0  0  0  0  0  0  0  0
   19.8830  -15.1975  -18.4499 C   0  0  0  0  0  0  0  0  0  0  0  0
   18.3012  -15.3319  -19.3163 S   0  0  0  0  0  0  0  0  0  0  0  0
   17.2497  -15.5382  -18.3369 O   0  0  0  0  0  0  0  0  0  0  0  0
   18.1279  -14.2484  -20.2685 O   0  0  0  0  0  0  0  0  0  0  0  0
   19.9750  -24.3511  -23.8004 N   0  0  0  0  0  0  0  0  0  0  0  0
   20.6486  -24.9123  -23.3525 H   0  0  0  0  0  0  0  0  0  0  0  0
   19.3310  -24.9093  -24.9939 C   0  0  0  0  0  0  0  0  0  0  0  0
   19.0137  -23.8446  -26.0326 C   0  0  0  0  0  0  0  0  0  0  0  0
   17.7921  -23.4650  -26.4425 C   0  0  0  0  0  0  0  0  0  0  0  0
   18.0978  -22.4126  -27.4403 C   0  0  0  0  0  0  0  0  0  0  0  0
   19.4472  -22.3756  -27.4471 C   0  0  0  0  0  0  0  0  0  0  0  0
   20.0622  -23.2268  -26.6049 O   0  0  0  0  0  0  0  0  0  0  0  0
 22 23  1  0  0  0
 22 20  1  0  0  0
 27 23  1  0  0  0
 27 26  1  0  0  0
  7  1  1  0  0  0
  7  6  2  0  0  0
 23 24  2  0  0  0
  1  2  2  0  0  0
 26 25  2  0  0  0
 20  6  1  0  0  0
  6  5  1  0  0  0
 16 17  1  0  0  0
 24 25  1  0  0  0
  2 15  1  0  0  0
  2  3  1  0  0  0
 14 15  2  0  0  0
 14 13  1  0  0  0
 15 10  1  0  0  0
 13 12  2  0  0  0
  5  3  1  0  0  0
  5  4  1  0  0  0
 10 11  2  0  0  0
 12 11  1  0  0  0
 12 17  1  0  0  0
 19 17  2  0  0  0
  3  8  2  0  0  0
 17 18  2  0  0  0
  4  9  2  0  0  0
  8  9  1  0  0  0
 20 21  1  0  0  0
M  END
> <minimizedAffinity>
-7.89308

$$$$
5WUK_73K_A_502


 27 30  0  0  0  0  0  0  0  0999 V2000
   18.7718  -20.8873  -23.4691 C   0  0  0  0  0  0  0  0  0  0  0  0
   18.4589  -20.7241  -22.1626 C   0  0  0  0  0  0  0  0  0  0  0  0
   18.0001  -21.9372  -21.4472 C   0  0  0  0  0  0  0  0  0  0  0  0
   17.5608  -23.9203  -21.1381 C   0  0  0  0  0  0  0  0  0  0  0  0
   17.9372  -23.0849  -22.0720 N   0  0  0  0  0  0  0  0  0  0  0  0
   18.2701  -23.2541  -23.3522 C   0  0  0  0  0  0  0  0  0  0  0  0
   18.6730  -22.2183  -24.0231 N   0  0  0  0  0  0  0  0  0  0  0  0
   17.6839  -21.9886  -20.2121 N   0  0  0  0  0  0  0  0  0  0  0  0
   17.3810  -23.3723  -19.9970 N   0  0  0  0  0  0  0  0  0  0  0  0
   19.7289  -18.6834  -21.3995 C   0  0  0  0  0  0  0  0  0  0  0  0
   19.7975  -17.4376  -20.7553 C   0  0  0  0  0  0  0  0  0  0  0  0
   18.6149  -16.8824  -20.2150 C   0  0  0  0  0  0  0  0  0  0  0  0
   17.3867  -17.5659  -20.3022 C   0  0  0  0  0  0  0  0  0  0  0  0
   17.3122  -18.7907  -20.9836 C   0  0  0  0  0  0  0  0  0  0  0  0
   18.4894  -19.3509  -21.5303 C   0  0  0  0  0  0  0  0  0  0  0  0
   17.6662  -15.7078  -17.9069 C   0  0  0  0  0  0  0  0  0  0  0  0
   18.6964  -15.3262  -19.3434 S   0  0  0  0  0  0  0  0  0  0  0  0
   18.0263  -14.3162  -20.1422 O   0  0  0  0  0  0  0  0  0  0  0  0
   20.0717  -15.0688  -18.9524 O   0  0  0  0  0  0  0  0  0  0  0  0
   18.2040  -24.4546  -23.9098 N   0  0  0  0  0  0  0  0  0  0  0  0
   18.9649  -25.0605  -23.7575 H   0  0  0  0  0  0  0  0  0  0  0  0
   17.1022  -24.9642  -24.7328 C   0  0  0  0  0  0  0  0  0  0  0  0
   16.1169  -25.7990  -23.9294 C   0  0  0  0  0  0  0  0  0  0  0  0
   14.7798  -25.6713  -23.9211 C   0  0  0  0  0  0  0  0  0  0  0  0
   14.3588  -26.7343  -22.9780 C   0  0  0  0  0  0  0  0  0  0  0  0
   15.5288  -27.2848  -22.5903 C   0  0  0  0  0  0  0  0  0  0  0  0
   16.6375  -26.7560  -23.1409 O   0  0  0  0  0  0  0  0  0  0  0  0
 22 23  1  0  0  0
 22 20  1  0  0  0
 27 23  1  0  0  0
 27 26  1  0  0  0
  7  1  1  0  0  0
  7  6  2  0  0  0
 23 24  2  0  0  0
  1  2  2  0  0  0
 26 25  2  0  0  0
 20  6  1  0  0  0
  6  5  1  0  0  0
 16 17  1  0  0  0
 24 25  1  0  0  0
  2 15  1  0  0  0
  2  3  1  0  0  0
 14 15  2  0  0  0
 14 13  1  0  0  0
 15 10  1  0  0  0
 13 12  2  0  0  0
  5  3  1  0  0  0
  5  4  1  0  0  0
 10 11  2  0  0  0
 12 11  1  0  0  0
 12 17  1  0  0  0
 19 17  2  0  0  0
  3  8  2  0  0  0
 17 18  2  0  0  0
  4  9  2  0  0  0
  8  9  1  0  0  0
 20 21  1  0  0  0
M  END
> <minimizedAffinity>
-7.76512

$$$$
5WUK_73K_A_502


 27 30  0  0  0  0  0  0  0  0999 V2000
   18.2749  -21.6061  -22.2051 C   0  0  0  0  0  0  0  0  0  0  0  0
   19.2372  -20.6547  -22.1855 C   0  0  0  0  0  0  0  0  0  0  0  0
   20.5584  -21.0547  -22.7226 C   0  0  0  0  0  0  0  0  0  0  0  0
   21.9721  -22.2372  -23.6305 C   0  0  0  0  0  0  0  0  0  0  0  0
   20.7368  -22.2597  -23.1999 N   0  0  0  0  0  0  0  0  0  0  0  0
   19.7832  -23.1908  -23.2448 C   0  0  0  0  0  0  0  0  0  0  0  0
   18.6092  -22.8890  -22.7802 N   0  0  0  0  0  0  0  0  0  0  0  0
   21.5790  -20.2940  -22.8098 N   0  0  0  0  0  0  0  0  0  0  0  0
   22.5630  -21.1186  -23.4459 N   0  0  0  0  0  0  0  0  0  0  0  0
   20.0610  -18.4337  -21.3205 C   0  0  0  0  0  0  0  0  0  0  0  0
   19.8565  -17.2052  -20.6721 C   0  0  0  0  0  0  0  0  0  0  0  0
   18.5550  -16.8754  -20.2292 C   0  0  0  0  0  0  0  0  0  0  0  0
   17.4781  -17.7634  -20.4162 C   0  0  0  0  0  0  0  0  0  0  0  0
   17.6761  -18.9717  -21.1021 C   0  0  0  0  0  0  0  0  0  0  0  0
   18.9737  -19.3073  -21.5519 C   0  0  0  0  0  0  0  0  0  0  0  0
   19.8550  -15.2101  -18.4559 C   0  0  0  0  0  0  0  0  0  0  0  0
   18.2901  -15.3425  -19.3528 S   0  0  0  0  0  0  0  0  0  0  0  0
   17.2187  -15.5405  -18.3935 O   0  0  0  0  0  0  0  0  0  0  0  0
   18.1399  -14.2627  -20.3130 O   0  0  0  0  0  0  0  0  0  0  0  0
   20.0332  -24.3829  -23.7671 N   0  0  0  0  0  0  0  0  0  0  0  0
   20.1592  -24.4257  -24.7426 H   0  0  0  0  0  0  0  0  0  0  0  0
   20.1396  -25.6443  -23.0266 C   0  0  0  0  0  0  0  0  0  0  0  0
   20.9330  -25.4943  -21.7377 C   0  0  0  0  0  0  0  0  0  0  0  0
   22.2689  -25.4102  -21.6252 C   0  0  0  0  0  0  0  0  0  0  0  0
   22.4628  -25.2748  -20.1621 C   0  0  0  0  0  0  0  0  0  0  0  0
   21.2035  -25.3197  -19.6778 C   0  0  0  0  0  0  0  0  0  0  0  0
   20.2263  -25.4502  -20.5944 O   0  0  0  0  0  0  0  0  0  0  0  0
 22 23  1  0  0  0
 22 20  1  0  0  0
 27 23  1  0  0  0
 27 26  1  0  0  0
  7  1  1  0  0  0
  7  6  2  0  0  0
 23 24  2  0  0  0
  1  2  2  0  0  0
 26 25  2  0  0  0
 20  6  1  0  0  0
  6  5  1  0  0  0
 16 17  1  0  0  0
 24 25  1  0  0  0
  2 15  1  0  0  0
  2  3  1  0  0  0
 14 15  2  0  0  0
 14 13  1  0  0  0
 15 10  1  0  0  0
 13 12  2  0  0  0
  5  3  1  0  0  0
  5  4  1  0  0  0
 10 11  2  0  0  0
 12 11  1  0  0  0
 12 17  1  0  0  0
 19 17  2  0  0  0
  3  8  2  0  0  0
 17 18  2  0  0  0
  4  9  2  0  0  0
  8  9  1  0  0  0
 20 21  1  0  0  0
M  END
> <minimizedAffinity>
-7.69553

$$$$
5WUK_73K_A_502


 27 30  0  0  0  0  0  0  0  0999 V2000
   21.7597  -20.7546  -22.0179 C   0  0  0  0  0  0  0  0  0  0  0  0
   20.4571  -20.6636  -22.3736 C   0  0  0  0  0  0  0  0  0  0  0  0
   20.0028  -21.6032  -23.4247 C   0  0  0  0  0  0  0  0  0  0  0  0
   20.0938  -23.1562  -24.7668 C   0  0  0  0  0  0  0  0  0  0  0  0
   20.8375  -22.4706  -23.9370 N   0  0  0  0  0  0  0  0  0  0  0  0
   22.1148  -22.5803  -23.5696 C   0  0  0  0  0  0  0  0  0  0  0  0
   22.5613  -21.7742  -22.6553 N   0  0  0  0  0  0  0  0  0  0  0  0
   18.8115  -21.6854  -23.8742 N   0  0  0  0  0  0  0  0  0  0  0  0
   18.8754  -22.7706  -24.8075 N   0  0  0  0  0  0  0  0  0  0  0  0
   20.1593  -18.3698  -21.3690 C   0  0  0  0  0  0  0  0  0  0  0  0
   19.3745  -17.3789  -20.7576 C   0  0  0  0  0  0  0  0  0  0  0  0
   18.0012  -17.6338  -20.5394 C   0  0  0  0  0  0  0  0  0  0  0  0
   17.4233  -18.8632  -20.9110 C   0  0  0  0  0  0  0  0  0  0  0  0
   18.1997  -19.8355  -21.5605 C   0  0  0  0  0  0  0  0  0  0  0  0
   19.5730  -19.5869  -21.7861 C   0  0  0  0  0  0  0  0  0  0  0  0
   18.2272  -15.7065  -18.5794 C   0  0  0  0  0  0  0  0  0  0  0  0
   17.0030  -16.4064  -19.7117 S   0  0  0  0  0  0  0  0  0  0  0  0
   15.9857  -17.0896  -18.9336 O   0  0  0  0  0  0  0  0  0  0  0  0
   16.5569  -15.4203  -20.6809 O   0  0  0  0  0  0  0  0  0  0  0  0
   22.8938  -23.5021  -24.1174 N   0  0  0  0  0  0  0  0  0  0  0  0
   22.5387  -24.4193  -24.1599 H   0  0  0  0  0  0  0  0  0  0  0  0
   24.2360  -23.2822  -24.6660 C   0  0  0  0  0  0  0  0  0  0  0  0
   24.2802  -22.1136  -25.6385 C   0  0  0  0  0  0  0  0  0  0  0  0
   23.8129  -22.1021  -26.8978 C   0  0  0  0  0  0  0  0  0  0  0  0
   24.1216  -20.7232  -27.3451 C   0  0  0  0  0  0  0  0  0  0  0  0
   24.7298  -20.1783  -26.2701 C   0  0  0  0  0  0  0  0  0  0  0  0
   24.8527  -20.9801  -25.1959 O   0  0  0  0  0  0  0  0  0  0  0  0
 22 23  1  0  0  0
 22 20  1  0  0  0
 27 23  1  0  0  0
 27 26  1  0  0  0
  7  1  1  0  0  0
  7  6  2  0  0  0
 23 24  2  0  0  0
  1  2  2  0  0  0
 26 25  2  0  0  0
 20  6  1  0  0  0
  6  5  1  0  0  0
 16 17  1  0  0  0
 24 25  1  0  0  0
  2 15  1  0  0  0
  2  3  1  0  0  0
 14 15  2  0  0  0
 14 13  1  0  0  0
 15 10  1  0  0  0
 13 12  2  0  0  0
  5  3  1  0  0  0
  5  4  1  0  0  0
 10 11  2  0  0  0
 12 11  1  0  0  0
 12 17  1  0  0  0
 19 17  2  0  0  0
  3  8  2  0  0  0
 17 18  2  0  0  0
  4  9  2  0  0  0
  8  9  1  0  0  0
 20 21  1  0  0  0
M  END
> <minimizedAffinity>
-7.46051

$$$$
5WUK_73K_A_502


 27 30  0  0  0  0  0  0  0  0999 V2000
   21.4798  -24.1954  -19.6151 C   0  0  0  0  0  0  0  0  0  0  0  0
   20.3781  -24.7572  -19.0653 C   0  0  0  0  0  0  0  0  0  0  0  0
   19.0819  -24.3764  -19.6726 C   0  0  0  0  0  0  0  0  0  0  0  0
   17.7773  -23.5008  -20.9965 C   0  0  0  0  0  0  0  0  0  0  0  0
   19.0489  -23.5598  -20.6943 N   0  0  0  0  0  0  0  0  0  0  0  0
   20.1346  -23.0256  -21.2549 C   0  0  0  0  0  0  0  0  0  0  0  0
   21.2940  -23.3253  -20.7538 N   0  0  0  0  0  0  0  0  0  0  0  0
   17.9408  -24.8172  -19.3099 N   0  0  0  0  0  0  0  0  0  0  0  0
   17.0323  -24.2086  -20.2358 N   0  0  0  0  0  0  0  0  0  0  0  0
   19.6646  -25.3706  -16.7256 C   0  0  0  0  0  0  0  0  0  0  0  0
   19.7965  -26.1265  -15.5497 C   0  0  0  0  0  0  0  0  0  0  0  0
   20.7898  -27.1308  -15.4915 C   0  0  0  0  0  0  0  0  0  0  0  0
   21.6480  -27.3668  -16.5830 C   0  0  0  0  0  0  0  0  0  0  0  0
   21.4865  -26.6393  -17.7723 C   0  0  0  0  0  0  0  0  0  0  0  0
   20.4929  -25.6361  -17.8403 C   0  0  0  0  0  0  0  0  0  0  0  0
   22.4665  -27.2368  -13.3040 C   0  0  0  0  0  0  0  0  0  0  0  0
   21.0073  -28.0615  -13.9833 S   0  0  0  0  0  0  0  0  0  0  0  0
   21.3628  -29.4251  -14.3318 O   0  0  0  0  0  0  0  0  0  0  0  0
   19.8473  -27.8676  -13.1305 O   0  0  0  0  0  0  0  0  0  0  0  0
   20.0227  -22.2252  -22.3053 N   0  0  0  0  0  0  0  0  0  0  0  0
   19.5315  -22.5753  -23.0834 H   0  0  0  0  0  0  0  0  0  0  0  0
   20.5628  -20.8662  -22.4159 C   0  0  0  0  0  0  0  0  0  0  0  0
   19.6234  -19.8203  -21.8353 C   0  0  0  0  0  0  0  0  0  0  0  0
   18.2903  -19.9244  -21.7078 C   0  0  0  0  0  0  0  0  0  0  0  0
   17.9224  -18.6298  -21.0870 C   0  0  0  0  0  0  0  0  0  0  0  0
   19.1071  -17.9921  -20.9765 C   0  0  0  0  0  0  0  0  0  0  0  0
   20.1830  -18.6719  -21.4151 O   0  0  0  0  0  0  0  0  0  0  0  0
 22 23  1  0  0  0
 22 20  1  0  0  0
 27 23  1  0  0  0
 27 26  1  0  0  0
  7  1  1  0  0  0
  7  6  2  0  0  0
 23 24  2  0  0  0
  1  2  2  0  0  0
 26 25  2  0  0  0
 20  6  1  0  0  0
  6  5  1  0  0  0
 16 17  1  0  0  0
 24 25  1  0  0  0
  2 15  1  0  0  0
  2  3  1  0  0  0
 14 15  2  0  0  0
 14 13  1  0  0  0
 15 10  1  0  0  0
 13 12  2  0  0  0
  5  3  1  0  0  0
  5  4  1  0  0  0
 10 11  2  0  0  0
 12 11  1  0  0  0
 12 17  1  0  0  0
 19 17  2  0  0  0
  3  8  2  0  0  0
 17 18  2  0  0  0
  4  9  2  0  0  0
  8  9  1  0  0  0
 20 21  1  0  0  0
M  END
> <minimizedAffinity>
-7.02187

$$$$
5WUK_73K_A_502


 27 30  0  0  0  0  0  0  0  0999 V2000
   18.8464  -20.8800  -23.5385 C   0  0  0  0  0  0  0  0  0  0  0  0
   18.4426  -20.8104  -22.2487 C   0  0  0  0  0  0  0  0  0  0  0  0
   17.8411  -22.0424  -21.6881 C   0  0  0  0  0  0  0  0  0  0  0  0
   17.2354  -24.0038  -21.6030 C   0  0  0  0  0  0  0  0  0  0  0  0
   17.7451  -23.1206  -22.4228 N   0  0  0  0  0  0  0  0  0  0  0  0
   18.1663  -23.2001  -23.6856 C   0  0  0  0  0  0  0  0  0  0  0  0
   18.6959  -22.1437  -24.2231 N   0  0  0  0  0  0  0  0  0  0  0  0
   17.4241  -22.1791  -20.4900 N   0  0  0  0  0  0  0  0  0  0  0  0
   17.0051  -23.5479  -20.4310 N   0  0  0  0  0  0  0  0  0  0  0  0
   17.3394  -18.9593  -20.9387 C   0  0  0  0  0  0  0  0  0  0  0  0
   17.3709  -17.7166  -20.2858 C   0  0  0  0  0  0  0  0  0  0  0  0
   18.5949  -17.0125  -20.2167 C   0  0  0  0  0  0  0  0  0  0  0  0
   19.7652  -17.5324  -20.8028 C   0  0  0  0  0  0  0  0  0  0  0  0
   19.7411  -18.7939  -21.4175 C   0  0  0  0  0  0  0  0  0  0  0  0
   18.5221  -19.5064  -21.4874 C   0  0  0  0  0  0  0  0  0  0  0  0
   17.6762  -15.7439  -17.9465 C   0  0  0  0  0  0  0  0  0  0  0  0
   18.6385  -15.4054  -19.4399 S   0  0  0  0  0  0  0  0  0  0  0  0
   17.8976  -14.4732  -20.2701 O   0  0  0  0  0  0  0  0  0  0  0  0
   20.0140  -15.0684  -19.1156 O   0  0  0  0  0  0  0  0  0  0  0  0
   18.0580  -24.3366  -24.3589 N   0  0  0  0  0  0  0  0  0  0  0  0
   17.8537  -25.1466  -23.8380 H   0  0  0  0  0  0  0  0  0  0  0  0
   18.2142  -24.4991  -25.8080 C   0  0  0  0  0  0  0  0  0  0  0  0
   18.0896  -25.9506  -26.2450 C   0  0  0  0  0  0  0  0  0  0  0  0
   17.5174  -26.4004  -27.3740 C   0  0  0  0  0  0  0  0  0  0  0  0
   17.6934  -27.8679  -27.2638 C   0  0  0  0  0  0  0  0  0  0  0  0
   18.3248  -28.0156  -26.0798 C   0  0  0  0  0  0  0  0  0  0  0  0
   18.5958  -26.8780  -25.4130 O   0  0  0  0  0  0  0  0  0  0  0  0
 22 23  1  0  0  0
 22 20  1  0  0  0
 27 23  1  0  0  0
 27 26  1  0  0  0
  7  1  1  0  0  0
  7  6  2  0  0  0
 23 24  2  0  0  0
  1  2  2  0  0  0
 26 25  2  0  0  0
 20  6  1  0  0  0
  6  5  1  0  0  0
 16 17  1  0  0  0
 24 25  1  0  0  0
  2 15  1  0  0  0
  2  3  1  0  0  0
 14 15  2  0  0  0
 14 13  1  0  0  0
 15 10  1  0  0  0
 13 12  2  0  0  0
  5  3  1  0  0  0
  5  4  1  0  0  0
 10 11  2  0  0  0
 12 11  1  0  0  0
 12 17  1  0  0  0
 19 17  2  0  0  0
  3  8  2  0  0  0
 17 18  2  0  0  0
  4  9  2  0  0  0
  8  9  1  0  0  0
 20 21  1  0  0  0
M  END
> <minimizedAffinity>
-6.86288

$$$$
5WUK_73K_A_502


 27 30  0  0  0  0  0  0  0  0999 V2000
   18.1140  -24.1156  -18.9924 C   0  0  0  0  0  0  0  0  0  0  0  0
   19.2321  -24.7941  -18.6445 C   0  0  0  0  0  0  0  0  0  0  0  0
   20.4351  -24.5311  -19.4677 C   0  0  0  0  0  0  0  0  0  0  0  0
   21.6115  -23.6488  -20.9026 C   0  0  0  0  0  0  0  0  0  0  0  0
   20.3840  -23.6687  -20.4502 N   0  0  0  0  0  0  0  0  0  0  0  0
   19.2909  -22.9790  -20.7785 C   0  0  0  0  0  0  0  0  0  0  0  0
   18.2093  -23.1795  -20.0892 N   0  0  0  0  0  0  0  0  0  0  0  0
   21.5838  -25.0544  -19.2816 N   0  0  0  0  0  0  0  0  0  0  0  0
   22.4039  -24.4361  -20.2805 N   0  0  0  0  0  0  0  0  0  0  0  0
   19.6719  -25.4784  -16.2575 C   0  0  0  0  0  0  0  0  0  0  0  0
   19.7110  -26.4367  -15.2319 C   0  0  0  0  0  0  0  0  0  0  0  0
   19.2944  -27.7576  -15.5156 C   0  0  0  0  0  0  0  0  0  0  0  0
   18.8606  -28.1204  -16.8054 C   0  0  0  0  0  0  0  0  0  0  0  0
   18.7819  -27.1513  -17.8176 C   0  0  0  0  0  0  0  0  0  0  0  0
   19.1927  -25.8272  -17.5411 C   0  0  0  0  0  0  0  0  0  0  0  0
   19.6217  -27.9496  -12.7837 C   0  0  0  0  0  0  0  0  0  0  0  0
   19.3921  -29.0005  -14.2375 S   0  0  0  0  0  0  0  0  0  0  0  0
   20.5996  -29.7792  -14.4448 O   0  0  0  0  0  0  0  0  0  0  0  0
   18.1320  -29.7207  -14.1738 O   0  0  0  0  0  0  0  0  0  0  0  0
   19.3235  -22.1028  -21.7724 N   0  0  0  0  0  0  0  0  0  0  0  0
   20.1052  -22.1341  -22.3699 H   0  0  0  0  0  0  0  0  0  0  0  0
   18.3028  -21.0910  -22.0643 C   0  0  0  0  0  0  0  0  0  0  0  0
   18.7128  -19.7028  -21.5971 C   0  0  0  0  0  0  0  0  0  0  0  0
   17.9015  -18.7513  -21.1065 C   0  0  0  0  0  0  0  0  0  0  0  0
   18.8403  -17.6401  -20.8226 C   0  0  0  0  0  0  0  0  0  0  0  0
   20.0335  -18.1360  -21.2134 C   0  0  0  0  0  0  0  0  0  0  0  0
   20.0181  -19.3937  -21.6930 O   0  0  0  0  0  0  0  0  0  0  0  0
 22 23  1  0  0  0
 22 20  1  0  0  0
 27 23  1  0  0  0
 27 26  1  0  0  0
  7  1  1  0  0  0
  7  6  2  0  0  0
 23 24  2  0  0  0
  1  2  2  0  0  0
 26 25  2  0  0  0
 20  6  1  0  0  0
  6  5  1  0  0  0
 16 17  1  0  0  0
 24 25  1  0  0  0
  2 15  1  0  0  0
  2  3  1  0  0  0
 14 15  2  0  0  0
 14 13  1  0  0  0
 15 10  1  0  0  0
 13 12  2  0  0  0
  5  3  1  0  0  0
  5  4  1  0  0  0
 10 11  2  0  0  0
 12 11  1  0  0  0
 12 17  1  0  0  0
 19 17  2  0  0  0
  3  8  2  0  0  0
 17 18  2  0  0  0
  4  9  2  0  0  0
  8  9  1  0  0  0
 20 21  1  0  0  0
M  END
> <minimizedAffinity>
-6.76348

$$$$
