3TTM_PUT_A_367


 10  9  0  0  0  0  0  0  0  0999 V2000
   16.6477   16.2016   27.1580 C   0  0  0  0  0  0  0  0  0  0  0  0
   16.0464   18.5228   26.6111 N   0  0  0  0  0  0  0  0  0  0  0  0
   17.1633   17.6309   26.9015 C   0  0  0  0  0  0  0  0  0  0  0  0
   16.3986   19.4652   26.4431 H   0  0  0  0  0  0  0  0  0  0  0  0
   15.4062   18.5356   27.4051 H   0  0  0  0  0  0  0  0  0  0  0  0
   17.7850   15.1745   27.0443 C   0  0  0  0  0  0  0  0  0  0  0  0
   18.4077   15.2044   25.6479 C   0  0  0  0  0  0  0  0  0  0  0  0
   19.1975   13.9997   25.4354 N   0  0  0  0  0  0  0  0  0  0  0  0
   19.9399   13.9524   26.1333 H   0  0  0  0  0  0  0  0  0  0  0  0
   19.6089   14.0231   24.5024 H   0  0  0  0  0  0  0  0  0  0  0  0
  2  3  1  0  0  0
  3  1  1  0  0  0
  1  6  1  0  0  0
  6  7  1  0  0  0
  7  8  1  0  0  0
  2  4  1  0  0  0
  2  5  1  0  0  0
  8  9  1  0  0  0
  8 10  1  0  0  0
M  END
> <minimizedAffinity>
-5.19076

$$$$
3TTM_PUT_A_367


 10  9  0  0  0  0  0  0  0  0999 V2000
   17.7409   15.2534   27.0665 C   0  0  0  0  0  0  0  0  0  0  0  0
   19.1440   14.0431   25.4494 N   0  0  0  0  0  0  0  0  0  0  0  0
   18.4032   15.2790   25.6754 C   0  0  0  0  0  0  0  0  0  0  0  0
   19.5779   14.0706   24.5267 H   0  0  0  0  0  0  0  0  0  0  0  0
   18.5053   13.2495   25.5013 H   0  0  0  0  0  0  0  0  0  0  0  0
   16.6098   16.2894   27.1599 C   0  0  0  0  0  0  0  0  0  0  0  0
   17.1201   17.6860   26.8027 C   0  0  0  0  0  0  0  0  0  0  0  0
   15.9928   18.5857   26.6032 N   0  0  0  0  0  0  0  0  0  0  0  0
   15.4096   18.2365   25.8427 H   0  0  0  0  0  0  0  0  0  0  0  0
   16.3379   19.5161   26.3674 H   0  0  0  0  0  0  0  0  0  0  0  0
  2  3  1  0  0  0
  3  1  1  0  0  0
  1  6  1  0  0  0
  6  7  1  0  0  0
  7  8  1  0  0  0
  2  4  1  0  0  0
  2  5  1  0  0  0
  8  9  1  0  0  0
  8 10  1  0  0  0
M  END
> <minimizedAffinity>
-5.17546

$$$$
3TTM_PUT_A_367


 10  9  0  0  0  0  0  0  0  0999 V2000
   18.4167   14.5723   24.2625 C   0  0  0  0  0  0  0  0  0  0  0  0
   20.2813   13.0126   24.6353 N   0  0  0  0  0  0  0  0  0  0  0  0
   19.8120   14.1114   23.7988 C   0  0  0  0  0  0  0  0  0  0  0  0
   21.2048   12.7156   24.3199 H   0  0  0  0  0  0  0  0  0  0  0  0
   19.6305   12.2303   24.5658 H   0  0  0  0  0  0  0  0  0  0  0  0
   18.5070   15.3884   25.5614 C   0  0  0  0  0  0  0  0  0  0  0  0
   17.7713   14.6817   26.7006 C   0  0  0  0  0  0  0  0  0  0  0  0
   18.5639   13.5559   27.1746 N   0  0  0  0  0  0  0  0  0  0  0  0
   18.7103   12.8972   26.4097 H   0  0  0  0  0  0  0  0  0  0  0  0
   18.0704   13.0891   27.9355 H   0  0  0  0  0  0  0  0  0  0  0  0
  2  3  1  0  0  0
  3  1  1  0  0  0
  1  6  1  0  0  0
  6  7  1  0  0  0
  7  8  1  0  0  0
  2  4  1  0  0  0
  2  5  1  0  0  0
  8  9  1  0  0  0
  8 10  1  0  0  0
M  END
> <minimizedAffinity>
-4.75820

$$$$
3TTM_PUT_A_367


 10  9  0  0  0  0  0  0  0  0999 V2000
   18.4718   15.4060   25.6062 C   0  0  0  0  0  0  0  0  0  0  0  0
   18.5921   13.5241   27.1849 N   0  0  0  0  0  0  0  0  0  0  0  0
   17.8070   14.6909   26.7983 C   0  0  0  0  0  0  0  0  0  0  0  0
   18.1436   13.0587   27.9740 H   0  0  0  0  0  0  0  0  0  0  0  0
   19.5308   13.8196   27.4533 H   0  0  0  0  0  0  0  0  0  0  0  0
   18.4054   14.5431   24.3365 C   0  0  0  0  0  0  0  0  0  0  0  0
   19.8085   14.1559   23.8675 C   0  0  0  0  0  0  0  0  0  0  0  0
   20.2777   13.0011   24.6202 N   0  0  0  0  0  0  0  0  0  0  0  0
   20.3072   13.2317   25.6133 H   0  0  0  0  0  0  0  0  0  0  0  0
   21.2127   12.7453   24.3026 H   0  0  0  0  0  0  0  0  0  0  0  0
  2  3  1  0  0  0
  3  1  1  0  0  0
  1  6  1  0  0  0
  6  7  1  0  0  0
  7  8  1  0  0  0
  2  4  1  0  0  0
  2  5  1  0  0  0
  8  9  1  0  0  0
  8 10  1  0  0  0
M  END
> <minimizedAffinity>
-4.75806

$$$$
3TTM_PUT_A_367


 10  9  0  0  0  0  0  0  0  0999 V2000
   16.6362   16.8751   27.2104 C   0  0  0  0  0  0  0  0  0  0  0  0
   18.8378   15.7883   27.0664 N   0  0  0  0  0  0  0  0  0  0  0  0
   17.5173   15.8640   26.4515 C   0  0  0  0  0  0  0  0  0  0  0  0
   19.4122   15.1169   26.5567 H   0  0  0  0  0  0  0  0  0  0  0  0
   18.7442   15.4881   28.0367 H   0  0  0  0  0  0  0  0  0  0  0  0
   16.9025   18.3104   26.7306 C   0  0  0  0  0  0  0  0  0  0  0  0
   15.5902   19.0372   26.4334 C   0  0  0  0  0  0  0  0  0  0  0  0
   15.8470   20.4574   26.2407 N   0  0  0  0  0  0  0  0  0  0  0  0
   16.2618   20.8459   27.0877 H   0  0  0  0  0  0  0  0  0  0  0  0
   14.9695   20.9375   26.0407 H   0  0  0  0  0  0  0  0  0  0  0  0
  2  3  1  0  0  0
  3  1  1  0  0  0
  1  6  1  0  0  0
  6  7  1  0  0  0
  7  8  1  0  0  0
  2  4  1  0  0  0
  2  5  1  0  0  0
  8  9  1  0  0  0
  8 10  1  0  0  0
M  END
> <minimizedAffinity>
-3.64813

$$$$
3TTM_PUT_A_367


 10  9  0  0  0  0  0  0  0  0999 V2000
   18.3962   16.0199   26.2016 C   0  0  0  0  0  0  0  0  0  0  0  0
   16.2373   16.5092   27.2731 N   0  0  0  0  0  0  0  0  0  0  0  0
   17.1199   15.4336   26.8354 C   0  0  0  0  0  0  0  0  0  0  0  0
   15.3964   16.1103   27.6907 H   0  0  0  0  0  0  0  0  0  0  0  0
   15.9788   17.0844   26.4715 H   0  0  0  0  0  0  0  0  0  0  0  0
   18.9624   15.0790   25.1266 C   0  0  0  0  0  0  0  0  0  0  0  0
   17.9483   13.9932   24.7647 C   0  0  0  0  0  0  0  0  0  0  0  0
   17.8152   13.9068   23.3174 N   0  0  0  0  0  0  0  0  0  0  0  0
   17.4929   14.8027   22.9515 H   0  0  0  0  0  0  0  0  0  0  0  0
   17.1397   13.1801   23.0808 H   0  0  0  0  0  0  0  0  0  0  0  0
  2  3  1  0  0  0
  3  1  1  0  0  0
  1  6  1  0  0  0
  6  7  1  0  0  0
  7  8  1  0  0  0
  2  4  1  0  0  0
  2  5  1  0  0  0
  8  9  1  0  0  0
  8 10  1  0  0  0
M  END
> <minimizedAffinity>
-3.57762

$$$$
