5M04_GDP_A_401


 36 38  0  0  0  0  0  0  0  0999 V2000
   -2.2065   42.8419    9.3775 C   0  0  0  0  0  0  0  0  0  0  0  0
   -1.1156   42.2484   10.0782 O   0  0  0  0  0  0  0  0  0  0  0  0
   -1.6439   43.5284    8.1657 C   0  0  0  0  0  0  0  0  0  0  0  0
   -1.3981   44.9165    8.4574 O   0  0  0  0  0  0  0  0  0  0  0  0
   -0.2777   42.8956    7.9968 C   0  0  0  0  0  0  0  0  0  0  0  0
    0.6772   43.7498    7.3143 O   0  0  0  0  0  0  0  0  0  0  0  0
    0.1065   42.5054    9.4207 C   0  0  0  0  0  0  0  0  0  0  0  0
   -0.8044   44.9861    9.2214 H   0  0  0  0  0  0  0  0  0  0  0  0
    0.7833   44.5767    7.8102 H   0  0  0  0  0  0  0  0  0  0  0  0
    0.9639   41.2616    9.4005 N   0  0  0  0  0  0  0  0  0  0  0  0
    0.6767   40.0606    8.8247 C   0  0  0  0  0  0  0  0  0  0  0  0
    1.6806   39.1757    8.9692 N   0  0  0  0  0  0  0  0  0  0  0  0
    2.6296   39.8155    9.6719 C   0  0  0  0  0  0  0  0  0  0  0  0
    3.9358   39.5038   10.2173 C   0  0  0  0  0  0  0  0  0  0  0  0
    4.5277   38.3896   10.0518 O   0  0  0  0  0  0  0  0  0  0  0  0
    4.5553   40.5061   10.8866 N   0  0  0  0  0  0  0  0  0  0  0  0
    4.0458   41.7496   11.0958 C   0  0  0  0  0  0  0  0  0  0  0  0
    4.7445   42.6789   11.8026 N   0  0  0  0  0  0  0  0  0  0  0  0
    2.8374   42.0954   10.6570 N   0  0  0  0  0  0  0  0  0  0  0  0
    2.1238   41.1863    9.9604 C   0  0  0  0  0  0  0  0  0  0  0  0
    5.4498   40.3182   11.2524 H   0  0  0  0  0  0  0  0  0  0  0  0
    5.6420   42.4642   12.1454 H   0  0  0  0  0  0  0  0  0  0  0  0
    4.3524   43.5661   11.9713 H   0  0  0  0  0  0  0  0  0  0  0  0
   -3.1803   41.7366    9.0705 C   0  0  0  0  0  0  0  0  0  0  0  0
   -2.7907   40.9954    7.9143 O   0  0  0  0  0  0  0  0  0  0  0  0
   -3.9129   40.5086    6.9461 P   0  0  0  0  0  0  0  0  0  0  0  0
   -3.2171   39.4188    6.1394 O   0  0  0  0  0  0  0  0  0  0  0  0
   -4.4714   41.6917    6.2499 O   0  0  0  0  0  0  0  0  0  0  0  0
   -5.1723   41.4082    5.6422 H   0  0  0  0  0  0  0  0  0  0  0  0
   -5.0670   40.0439    8.0171 O   0  0  0  0  0  0  0  0  0  0  0  0
   -6.1380   38.8236    7.9117 P   0  0  0  0  0  0  0  0  0  0  0  0
   -5.7531   37.8083    8.9489 O   0  0  0  0  0  0  0  0  0  0  0  0
   -7.5009   39.4519    8.1098 O   0  0  0  0  0  0  0  0  0  0  0  0
   -5.8677   38.3092    6.5550 O   0  0  0  0  0  0  0  0  0  0  0  0
   -8.1842   38.7655    8.0566 H   0  0  0  0  0  0  0  0  0  0  0  0
   -6.4572   37.5616    6.3692 H   0  0  0  0  0  0  0  0  0  0  0  0
 31 32  2  0  0  0
 31 33  1  0  0  0
 31 34  1  0  0  0
 31 30  1  0  0  0
 30 26  1  0  0  0
 26 27  2  0  0  0
 26 28  1  0  0  0
 26 25  1  0  0  0
 25 24  1  0  0  0
 24  1  1  0  0  0
  1  2  1  0  0  0
  1  3  1  0  0  0
  2  7  1  0  0  0
  3  4  1  0  0  0
  3  5  1  0  0  0
  5  6  1  0  0  0
  5  7  1  0  0  0
  7 10  1  0  0  0
 10 11  1  0  0  0
 10 20  1  0  0  0
 11 12  2  0  0  0
 12 13  1  0  0  0
 13 14  1  0  0  0
 13 20  2  0  0  0
 14 15  2  0  0  0
 14 16  1  0  0  0
 16 17  1  0  0  0
 17 18  1  0  0  0
 17 19  2  0  0  0
 19 20  1  0  0  0
 33 35  1  0  0  0
 34 36  1  0  0  0
 28 29  1  0  0  0
  4  8  1  0  0  0
  6  9  1  0  0  0
 16 21  1  0  0  0
 18 22  1  0  0  0
 18 23  1  0  0  0
M  END
> <minimizedAffinity>
-9.92757

$$$$
5M04_GDP_A_401


 36 38  0  0  0  0  0  0  0  0999 V2000
   -2.2234   42.7157    9.4028 C   0  0  0  0  0  0  0  0  0  0  0  0
   -1.1364   42.1132   10.1019 O   0  0  0  0  0  0  0  0  0  0  0  0
   -1.6475   43.4722    8.2399 C   0  0  0  0  0  0  0  0  0  0  0  0
   -1.4414   44.8496    8.6037 O   0  0  0  0  0  0  0  0  0  0  0  0
   -0.2633   42.8787    8.0757 C   0  0  0  0  0  0  0  0  0  0  0  0
    0.6878   43.7858    7.4595 O   0  0  0  0  0  0  0  0  0  0  0  0
    0.0951   42.4287    9.4888 C   0  0  0  0  0  0  0  0  0  0  0  0
   -0.8683   44.8954    9.3850 H   0  0  0  0  0  0  0  0  0  0  0  0
    0.7626   44.5899    7.9968 H   0  0  0  0  0  0  0  0  0  0  0  0
    0.9815   41.2066    9.4310 N   0  0  0  0  0  0  0  0  0  0  0  0
    0.7276   40.0216    8.8083 C   0  0  0  0  0  0  0  0  0  0  0  0
    1.7506   39.1552    8.9299 N   0  0  0  0  0  0  0  0  0  0  0  0
    2.6779   39.7900    9.6652 C   0  0  0  0  0  0  0  0  0  0  0  0
    3.9861   39.4884   10.2117 C   0  0  0  0  0  0  0  0  0  0  0  0
    4.6053   38.3950   10.0109 O   0  0  0  0  0  0  0  0  0  0  0  0
    4.5758   40.4790   10.9238 N   0  0  0  0  0  0  0  0  0  0  0  0
    4.0355   41.7018   11.1739 C   0  0  0  0  0  0  0  0  0  0  0  0
    4.7058   42.6200   11.9216 N   0  0  0  0  0  0  0  0  0  0  0  0
    2.8235   42.0358   10.7361 N   0  0  0  0  0  0  0  0  0  0  0  0
    2.1377   41.1371    9.9993 C   0  0  0  0  0  0  0  0  0  0  0  0
    5.4711   40.2983   11.2913 H   0  0  0  0  0  0  0  0  0  0  0  0
    5.6050   42.4133   12.2651 H   0  0  0  0  0  0  0  0  0  0  0  0
    4.2916   43.4910   12.1191 H   0  0  0  0  0  0  0  0  0  0  0  0
   -3.1634   41.6053    9.0185 C   0  0  0  0  0  0  0  0  0  0  0  0
   -3.2486   41.4517    7.6018 O   0  0  0  0  0  0  0  0  0  0  0  0
   -4.1526   40.3093    7.0438 P   0  0  0  0  0  0  0  0  0  0  0  0
   -4.7860   39.7306    8.3034 O   0  0  0  0  0  0  0  0  0  0  0  0
   -3.3218   39.4411    6.1765 O   0  0  0  0  0  0  0  0  0  0  0  0
   -3.8679   38.7233    5.8194 H   0  0  0  0  0  0  0  0  0  0  0  0
   -5.1223   41.1518    6.0218 O   0  0  0  0  0  0  0  0  0  0  0  0
   -4.8247   42.5431    5.2324 P   0  0  0  0  0  0  0  0  0  0  0  0
   -5.8402   42.6514    4.1316 O   0  0  0  0  0  0  0  0  0  0  0  0
   -4.8990   43.6353    6.2779 O   0  0  0  0  0  0  0  0  0  0  0  0
   -3.4813   42.2866    4.6774 O   0  0  0  0  0  0  0  0  0  0  0  0
   -4.7282   44.4943    5.8609 H   0  0  0  0  0  0  0  0  0  0  0  0
   -3.1865   43.0610    4.1732 H   0  0  0  0  0  0  0  0  0  0  0  0
 31 32  2  0  0  0
 31 33  1  0  0  0
 31 34  1  0  0  0
 31 30  1  0  0  0
 30 26  1  0  0  0
 26 27  2  0  0  0
 26 28  1  0  0  0
 26 25  1  0  0  0
 25 24  1  0  0  0
 24  1  1  0  0  0
  1  2  1  0  0  0
  1  3  1  0  0  0
  2  7  1  0  0  0
  3  4  1  0  0  0
  3  5  1  0  0  0
  5  6  1  0  0  0
  5  7  1  0  0  0
  7 10  1  0  0  0
 10 11  1  0  0  0
 10 20  1  0  0  0
 11 12  2  0  0  0
 12 13  1  0  0  0
 13 14  1  0  0  0
 13 20  2  0  0  0
 14 15  2  0  0  0
 14 16  1  0  0  0
 16 17  1  0  0  0
 17 18  1  0  0  0
 17 19  2  0  0  0
 19 20  1  0  0  0
 33 35  1  0  0  0
 34 36  1  0  0  0
 28 29  1  0  0  0
  4  8  1  0  0  0
  6  9  1  0  0  0
 16 21  1  0  0  0
 18 22  1  0  0  0
 18 23  1  0  0  0
M  END
> <minimizedAffinity>
-8.77036

$$$$
5M04_GDP_A_401


 36 38  0  0  0  0  0  0  0  0999 V2000
   -1.8779   41.7615    9.8537 C   0  0  0  0  0  0  0  0  0  0  0  0
   -0.4622   41.8797    9.9776 O   0  0  0  0  0  0  0  0  0  0  0  0
   -2.4782   43.0719   10.2765 C   0  0  0  0  0  0  0  0  0  0  0  0
   -2.8438   43.0183   11.6678 O   0  0  0  0  0  0  0  0  0  0  0  0
   -1.3175   44.0419   10.1934 C   0  0  0  0  0  0  0  0  0  0  0  0
   -1.4504   45.1835   11.0803 O   0  0  0  0  0  0  0  0  0  0  0  0
   -0.1022   43.1578   10.4558 C   0  0  0  0  0  0  0  0  0  0  0  0
   -2.0647   42.7891   12.1983 H   0  0  0  0  0  0  0  0  0  0  0  0
   -1.5242   44.8741   11.9966 H   0  0  0  0  0  0  0  0  0  0  0  0
    1.0925   43.6855    9.6963 N   0  0  0  0  0  0  0  0  0  0  0  0
    1.0937   44.5298    8.6269 C   0  0  0  0  0  0  0  0  0  0  0  0
    2.3406   44.8224    8.2130 N   0  0  0  0  0  0  0  0  0  0  0  0
    3.1622   44.1347    9.0226 C   0  0  0  0  0  0  0  0  0  0  0  0
    4.5911   43.9336    9.1599 C   0  0  0  0  0  0  0  0  0  0  0  0
    5.4632   44.5153    8.4385 O   0  0  0  0  0  0  0  0  0  0  0  0
    4.9824   43.1156   10.1669 N   0  0  0  0  0  0  0  0  0  0  0  0
    4.1515   42.4690   11.0278 C   0  0  0  0  0  0  0  0  0  0  0  0
    4.6493   41.6503   11.9939 N   0  0  0  0  0  0  0  0  0  0  0  0
    2.8276   42.5763   10.9386 N   0  0  0  0  0  0  0  0  0  0  0  0
    2.3121   43.3769    9.9824 C   0  0  0  0  0  0  0  0  0  0  0  0
    5.9500   42.9776   10.2852 H   0  0  0  0  0  0  0  0  0  0  0  0
    5.6227   41.5424   12.0942 H   0  0  0  0  0  0  0  0  0  0  0  0
    4.0360   41.1659   12.5927 H   0  0  0  0  0  0  0  0  0  0  0  0
   -2.1600   41.3799    8.4257 C   0  0  0  0  0  0  0  0  0  0  0  0
   -3.2561   40.4704    8.3286 O   0  0  0  0  0  0  0  0  0  0  0  0
   -4.1084   40.4902    7.0221 P   0  0  0  0  0  0  0  0  0  0  0  0
   -3.4232   39.4424    6.1530 O   0  0  0  0  0  0  0  0  0  0  0  0
   -4.1978   41.8911    6.5470 O   0  0  0  0  0  0  0  0  0  0  0  0
   -4.7253   41.9236    5.7336 H   0  0  0  0  0  0  0  0  0  0  0  0
   -5.5961   40.1322    7.6164 O   0  0  0  0  0  0  0  0  0  0  0  0
   -6.3397   38.6894    7.7298 P   0  0  0  0  0  0  0  0  0  0  0  0
   -7.7518   38.9542    8.1663 O   0  0  0  0  0  0  0  0  0  0  0  0
   -6.2040   38.0465    6.3660 O   0  0  0  0  0  0  0  0  0  0  0  0
   -5.5723   38.0456    8.8138 O   0  0  0  0  0  0  0  0  0  0  0  0
   -6.6327   37.1765    6.3746 H   0  0  0  0  0  0  0  0  0  0  0  0
   -5.9280   37.1584    8.9789 H   0  0  0  0  0  0  0  0  0  0  0  0
 31 32  2  0  0  0
 31 33  1  0  0  0
 31 34  1  0  0  0
 31 30  1  0  0  0
 30 26  1  0  0  0
 26 27  2  0  0  0
 26 28  1  0  0  0
 26 25  1  0  0  0
 25 24  1  0  0  0
 24  1  1  0  0  0
  1  2  1  0  0  0
  1  3  1  0  0  0
  2  7  1  0  0  0
  3  4  1  0  0  0
  3  5  1  0  0  0
  5  6  1  0  0  0
  5  7  1  0  0  0
  7 10  1  0  0  0
 10 11  1  0  0  0
 10 20  1  0  0  0
 11 12  2  0  0  0
 12 13  1  0  0  0
 13 14  1  0  0  0
 13 20  2  0  0  0
 14 15  2  0  0  0
 14 16  1  0  0  0
 16 17  1  0  0  0
 17 18  1  0  0  0
 17 19  2  0  0  0
 19 20  1  0  0  0
 33 35  1  0  0  0
 34 36  1  0  0  0
 28 29  1  0  0  0
  4  8  1  0  0  0
  6  9  1  0  0  0
 16 21  1  0  0  0
 18 22  1  0  0  0
 18 23  1  0  0  0
M  END
> <minimizedAffinity>
-7.47468

$$$$
5M04_GDP_A_401


 36 38  0  0  0  0  0  0  0  0999 V2000
   -2.8593   43.5674   10.5273 C   0  0  0  0  0  0  0  0  0  0  0  0
   -1.8240   43.5378   11.5074 O   0  0  0  0  0  0  0  0  0  0  0  0
   -2.5637   44.7064    9.5937 C   0  0  0  0  0  0  0  0  0  0  0  0
   -3.2715   45.8858   10.0184 O   0  0  0  0  0  0  0  0  0  0  0  0
   -1.0968   44.9975    9.8359 C   0  0  0  0  0  0  0  0  0  0  0  0
   -0.7198   46.3671    9.5367 O   0  0  0  0  0  0  0  0  0  0  0  0
   -0.8899   44.5724   11.2864 C   0  0  0  0  0  0  0  0  0  0  0  0
   -3.0295   46.0959   10.9339 H   0  0  0  0  0  0  0  0  0  0  0  0
   -1.2451   46.9735   10.0819 H   0  0  0  0  0  0  0  0  0  0  0  0
    0.5181   44.0585   11.4767 N   0  0  0  0  0  0  0  0  0  0  0  0
    1.4729   44.5375   12.3226 C   0  0  0  0  0  0  0  0  0  0  0  0
    2.6109   43.8213   12.2606 N   0  0  0  0  0  0  0  0  0  0  0  0
    2.3910   42.8700   11.3385 C   0  0  0  0  0  0  0  0  0  0  0  0
    3.1409   41.7879   10.7323 C   0  0  0  0  0  0  0  0  0  0  0  0
    4.3278   41.4720   11.0652 O   0  0  0  0  0  0  0  0  0  0  0  0
    2.4818   41.0561    9.8015 N   0  0  0  0  0  0  0  0  0  0  0  0
    1.2032   41.2683    9.3897 C   0  0  0  0  0  0  0  0  0  0  0  0
    0.6414   40.4850    8.4294 N   0  0  0  0  0  0  0  0  0  0  0  0
    0.4667   42.2657    9.8745 N   0  0  0  0  0  0  0  0  0  0  0  0
    1.0070   43.0600   10.8222 C   0  0  0  0  0  0  0  0  0  0  0  0
    2.9699   40.3075    9.3885 H   0  0  0  0  0  0  0  0  0  0  0  0
    1.1517   39.7365    8.0440 H   0  0  0  0  0  0  0  0  0  0  0  0
   -0.2753   40.6669    8.1199 H   0  0  0  0  0  0  0  0  0  0  0  0
   -2.8769   42.2134    9.8709 C   0  0  0  0  0  0  0  0  0  0  0  0
   -3.9003   42.1200    8.8800 O   0  0  0  0  0  0  0  0  0  0  0  0
   -3.5530   41.4084    7.5359 P   0  0  0  0  0  0  0  0  0  0  0  0
   -2.0410   41.5762    7.4428 O   0  0  0  0  0  0  0  0  0  0  0  0
   -4.4192   41.9726    6.4740 O   0  0  0  0  0  0  0  0  0  0  0  0
   -4.2173   41.5415    5.6289 H   0  0  0  0  0  0  0  0  0  0  0  0
   -4.1356   39.9008    7.8230 O   0  0  0  0  0  0  0  0  0  0  0  0
   -5.6683   39.3590    7.7547 P   0  0  0  0  0  0  0  0  0  0  0  0
   -5.7533   38.1613    8.6565 O   0  0  0  0  0  0  0  0  0  0  0  0
   -6.5384   40.5281    8.1641 O   0  0  0  0  0  0  0  0  0  0  0  0
   -5.7756   38.9531    6.3397 O   0  0  0  0  0  0  0  0  0  0  0  0
   -7.4706   40.2610    8.1414 H   0  0  0  0  0  0  0  0  0  0  0  0
   -6.6648   38.6048    6.1698 H   0  0  0  0  0  0  0  0  0  0  0  0
 31 32  2  0  0  0
 31 33  1  0  0  0
 31 34  1  0  0  0
 31 30  1  0  0  0
 30 26  1  0  0  0
 26 27  2  0  0  0
 26 28  1  0  0  0
 26 25  1  0  0  0
 25 24  1  0  0  0
 24  1  1  0  0  0
  1  2  1  0  0  0
  1  3  1  0  0  0
  2  7  1  0  0  0
  3  4  1  0  0  0
  3  5  1  0  0  0
  5  6  1  0  0  0
  5  7  1  0  0  0
  7 10  1  0  0  0
 10 11  1  0  0  0
 10 20  1  0  0  0
 11 12  2  0  0  0
 12 13  1  0  0  0
 13 14  1  0  0  0
 13 20  2  0  0  0
 14 15  2  0  0  0
 14 16  1  0  0  0
 16 17  1  0  0  0
 17 18  1  0  0  0
 17 19  2  0  0  0
 19 20  1  0  0  0
 33 35  1  0  0  0
 34 36  1  0  0  0
 28 29  1  0  0  0
  4  8  1  0  0  0
  6  9  1  0  0  0
 16 21  1  0  0  0
 18 22  1  0  0  0
 18 23  1  0  0  0
M  END
> <minimizedAffinity>
-7.23623

$$$$
5M04_GDP_A_401


 36 38  0  0  0  0  0  0  0  0999 V2000
   -1.7838   43.5380    8.6807 C   0  0  0  0  0  0  0  0  0  0  0  0
   -1.1853   42.5476    9.5140 O   0  0  0  0  0  0  0  0  0  0  0  0
   -0.6981   44.4847    8.2549 C   0  0  0  0  0  0  0  0  0  0  0  0
   -0.6549   45.6149    9.1454 O   0  0  0  0  0  0  0  0  0  0  0  0
    0.5769   43.7083    8.5137 C   0  0  0  0  0  0  0  0  0  0  0  0
    1.7319   44.5535    8.7567 O   0  0  0  0  0  0  0  0  0  0  0  0
    0.1973   42.7855    9.6677 C   0  0  0  0  0  0  0  0  0  0  0  0
   -0.5283   45.3047   10.0557 H   0  0  0  0  0  0  0  0  0  0  0  0
    1.5605   45.1227    9.5231 H   0  0  0  0  0  0  0  0  0  0  0  0
    0.9677   41.4898    9.5660 N   0  0  0  0  0  0  0  0  0  0  0  0
    0.5740   40.3308    8.9674 C   0  0  0  0  0  0  0  0  0  0  0  0
    1.5222   39.3778    9.0343 N   0  0  0  0  0  0  0  0  0  0  0  0
    2.5438   39.9294    9.7093 C   0  0  0  0  0  0  0  0  0  0  0  0
    3.8505   39.5144   10.1796 C   0  0  0  0  0  0  0  0  0  0  0  0
    4.3581   38.3703    9.9500 O   0  0  0  0  0  0  0  0  0  0  0  0
    4.5664   40.4502   10.8489 N   0  0  0  0  0  0  0  0  0  0  0  0
    4.1517   41.7163   11.1221 C   0  0  0  0  0  0  0  0  0  0  0  0
    4.9434   42.5728   11.8227 N   0  0  0  0  0  0  0  0  0  0  0  0
    2.9498   42.1552   10.7545 N   0  0  0  0  0  0  0  0  0  0  0  0
    2.1450   41.3194   10.0655 C   0  0  0  0  0  0  0  0  0  0  0  0
    5.4626   40.1917   11.1641 H   0  0  0  0  0  0  0  0  0  0  0  0
    5.8397   42.2881   12.1140 H   0  0  0  0  0  0  0  0  0  0  0  0
    4.6199   43.4773   12.0384 H   0  0  0  0  0  0  0  0  0  0  0  0
   -2.4524   42.8079    7.5474 C   0  0  0  0  0  0  0  0  0  0  0  0
   -1.7437   42.9760    6.3196 O   0  0  0  0  0  0  0  0  0  0  0  0
   -2.5774   43.1276    5.0098 P   0  0  0  0  0  0  0  0  0  0  0  0
   -3.7137   44.0502    5.4345 O   0  0  0  0  0  0  0  0  0  0  0  0
   -2.8873   41.7722    4.4968 O   0  0  0  0  0  0  0  0  0  0  0  0
   -3.4065   41.8462    3.6808 H   0  0  0  0  0  0  0  0  0  0  0  0
   -1.4443   43.7350    3.9891 O   0  0  0  0  0  0  0  0  0  0  0  0
    0.0003   43.1158    3.5684 P   0  0  0  0  0  0  0  0  0  0  0  0
    0.5884   44.0318    2.5340 O   0  0  0  0  0  0  0  0  0  0  0  0
    0.7947   43.0114    4.8527 O   0  0  0  0  0  0  0  0  0  0  0  0
   -0.3946   41.8302    2.9604 O   0  0  0  0  0  0  0  0  0  0  0  0
    1.6723   42.6452    4.6612 H   0  0  0  0  0  0  0  0  0  0  0  0
    0.3977   41.3563    2.6629 H   0  0  0  0  0  0  0  0  0  0  0  0
 31 32  2  0  0  0
 31 33  1  0  0  0
 31 34  1  0  0  0
 31 30  1  0  0  0
 30 26  1  0  0  0
 26 27  2  0  0  0
 26 28  1  0  0  0
 26 25  1  0  0  0
 25 24  1  0  0  0
 24  1  1  0  0  0
  1  2  1  0  0  0
  1  3  1  0  0  0
  2  7  1  0  0  0
  3  4  1  0  0  0
  3  5  1  0  0  0
  5  6  1  0  0  0
  5  7  1  0  0  0
  7 10  1  0  0  0
 10 11  1  0  0  0
 10 20  1  0  0  0
 11 12  2  0  0  0
 12 13  1  0  0  0
 13 14  1  0  0  0
 13 20  2  0  0  0
 14 15  2  0  0  0
 14 16  1  0  0  0
 16 17  1  0  0  0
 17 18  1  0  0  0
 17 19  2  0  0  0
 19 20  1  0  0  0
 33 35  1  0  0  0
 34 36  1  0  0  0
 28 29  1  0  0  0
  4  8  1  0  0  0
  6  9  1  0  0  0
 16 21  1  0  0  0
 18 22  1  0  0  0
 18 23  1  0  0  0
M  END
> <minimizedAffinity>
-7.13531

$$$$
5M04_GDP_A_401


 36 38  0  0  0  0  0  0  0  0999 V2000
    0.9334   40.6703    8.6734 C   0  0  0  0  0  0  0  0  0  0  0  0
    1.5269   41.9297    8.3650 O   0  0  0  0  0  0  0  0  0  0  0  0
    1.8603   39.9533    9.6130 C   0  0  0  0  0  0  0  0  0  0  0  0
    2.7332   39.0813    8.8715 O   0  0  0  0  0  0  0  0  0  0  0  0
    2.7454   41.0566   10.1557 C   0  0  0  0  0  0  0  0  0  0  0  0
    4.0506   40.5929   10.5903 O   0  0  0  0  0  0  0  0  0  0  0  0
    2.7669   42.0781    9.0227 C   0  0  0  0  0  0  0  0  0  0  0  0
    3.2179   39.5969    8.2081 H   0  0  0  0  0  0  0  0  0  0  0  0
    4.5088   40.1727    9.8457 H   0  0  0  0  0  0  0  0  0  0  0  0
    2.8977   43.4727    9.5888 N   0  0  0  0  0  0  0  0  0  0  0  0
    1.9021   44.3711    9.8301 C   0  0  0  0  0  0  0  0  0  0  0  0
    2.3687   45.5127   10.3692 N   0  0  0  0  0  0  0  0  0  0  0  0
    3.6992   45.3540   10.4594 C   0  0  0  0  0  0  0  0  0  0  0  0
    4.8338   46.1436   10.8954 C   0  0  0  0  0  0  0  0  0  0  0  0
    4.7375   47.3081   11.3994 O   0  0  0  0  0  0  0  0  0  0  0  0
    6.0463   45.5465   10.7984 N   0  0  0  0  0  0  0  0  0  0  0  0
    6.2748   44.2956   10.3159 C   0  0  0  0  0  0  0  0  0  0  0  0
    7.5388   43.7976   10.2416 N   0  0  0  0  0  0  0  0  0  0  0  0
    5.2864   43.5273    9.8631 N   0  0  0  0  0  0  0  0  0  0  0  0
    4.0255   44.0047    9.9199 C   0  0  0  0  0  0  0  0  0  0  0  0
    6.8280   46.0617   11.1030 H   0  0  0  0  0  0  0  0  0  0  0  0
    8.2987   44.3333   10.5655 H   0  0  0  0  0  0  0  0  0  0  0  0
    7.6935   42.9017    9.8641 H   0  0  0  0  0  0  0  0  0  0  0  0
   -0.4293   40.9586    9.2430 C   0  0  0  0  0  0  0  0  0  0  0  0
   -1.4233   41.0361    8.2214 O   0  0  0  0  0  0  0  0  0  0  0  0
   -2.7992   41.6736    8.5876 P   0  0  0  0  0  0  0  0  0  0  0  0
   -2.8907   42.8574    7.6321 O   0  0  0  0  0  0  0  0  0  0  0  0
   -2.8275   41.9091   10.0505 O   0  0  0  0  0  0  0  0  0  0  0  0
   -3.6773   42.3061   10.2977 H   0  0  0  0  0  0  0  0  0  0  0  0
   -3.8082   40.4052    8.3274 O   0  0  0  0  0  0  0  0  0  0  0  0
   -4.4520   39.8710    6.9318 P   0  0  0  0  0  0  0  0  0  0  0  0
   -5.2814   38.6637    7.2623 O   0  0  0  0  0  0  0  0  0  0  0  0
   -5.2266   41.0394    6.3603 O   0  0  0  0  0  0  0  0  0  0  0  0
   -3.2438   39.4817    6.1787 O   0  0  0  0  0  0  0  0  0  0  0  0
   -5.6354   40.7767    5.5208 H   0  0  0  0  0  0  0  0  0  0  0  0
   -3.5015   39.1393    5.3085 H   0  0  0  0  0  0  0  0  0  0  0  0
 31 32  2  0  0  0
 31 33  1  0  0  0
 31 34  1  0  0  0
 31 30  1  0  0  0
 30 26  1  0  0  0
 26 27  2  0  0  0
 26 28  1  0  0  0
 26 25  1  0  0  0
 25 24  1  0  0  0
 24  1  1  0  0  0
  1  2  1  0  0  0
  1  3  1  0  0  0
  2  7  1  0  0  0
  3  4  1  0  0  0
  3  5  1  0  0  0
  5  6  1  0  0  0
  5  7  1  0  0  0
  7 10  1  0  0  0
 10 11  1  0  0  0
 10 20  1  0  0  0
 11 12  2  0  0  0
 12 13  1  0  0  0
 13 14  1  0  0  0
 13 20  2  0  0  0
 14 15  2  0  0  0
 14 16  1  0  0  0
 16 17  1  0  0  0
 17 18  1  0  0  0
 17 19  2  0  0  0
 19 20  1  0  0  0
 33 35  1  0  0  0
 34 36  1  0  0  0
 28 29  1  0  0  0
  4  8  1  0  0  0
  6  9  1  0  0  0
 16 21  1  0  0  0
 18 22  1  0  0  0
 18 23  1  0  0  0
M  END
> <minimizedAffinity>
-7.12657

$$$$
5M04_GDP_A_401


 36 38  0  0  0  0  0  0  0  0999 V2000
   -4.8237   43.8270    6.4384 C   0  0  0  0  0  0  0  0  0  0  0  0
   -4.8675   43.7510    7.8617 O   0  0  0  0  0  0  0  0  0  0  0  0
   -4.0550   45.0658    6.0767 C   0  0  0  0  0  0  0  0  0  0  0  0
   -4.9632   46.1615    5.8604 O   0  0  0  0  0  0  0  0  0  0  0  0
   -3.2992   45.4025    7.3458 C   0  0  0  0  0  0  0  0  0  0  0  0
   -2.9736   46.8117    7.4709 O   0  0  0  0  0  0  0  0  0  0  0  0
   -4.1973   44.8466    8.4467 C   0  0  0  0  0  0  0  0  0  0  0  0
   -5.5075   46.2916    6.6526 H   0  0  0  0  0  0  0  0  0  0  0  0
   -3.7903   47.3349    7.4543 H   0  0  0  0  0  0  0  0  0  0  0  0
   -3.3561   44.3855    9.6140 N   0  0  0  0  0  0  0  0  0  0  0  0
   -2.2556   43.5827    9.5825 C   0  0  0  0  0  0  0  0  0  0  0  0
   -1.7283   43.3966   10.8069 N   0  0  0  0  0  0  0  0  0  0  0  0
   -2.5195   44.0797   11.6501 C   0  0  0  0  0  0  0  0  0  0  0  0
   -2.5958   44.3115   13.0789 C   0  0  0  0  0  0  0  0  0  0  0  0
   -1.7483   43.8666   13.9173 O   0  0  0  0  0  0  0  0  0  0  0  0
   -3.6119   45.1034   13.4994 N   0  0  0  0  0  0  0  0  0  0  0  0
   -4.5554   45.6694   12.6999 C   0  0  0  0  0  0  0  0  0  0  0  0
   -5.5494   46.4333   13.2288 N   0  0  0  0  0  0  0  0  0  0  0  0
   -4.5706   45.4703   11.3837 N   0  0  0  0  0  0  0  0  0  0  0  0
   -3.5985   44.7091   10.8391 C   0  0  0  0  0  0  0  0  0  0  0  0
   -3.6722   45.2842   14.4652 H   0  0  0  0  0  0  0  0  0  0  0  0
   -5.5755   46.6054   14.1978 H   0  0  0  0  0  0  0  0  0  0  0  0
   -6.2426   46.8141   12.6424 H   0  0  0  0  0  0  0  0  0  0  0  0
   -4.2027   42.5454    5.9525 C   0  0  0  0  0  0  0  0  0  0  0  0
   -4.9154   41.4014    6.4229 O   0  0  0  0  0  0  0  0  0  0  0  0
   -4.0860   40.1723    6.9078 P   0  0  0  0  0  0  0  0  0  0  0  0
   -3.6668   40.5789    8.3156 O   0  0  0  0  0  0  0  0  0  0  0  0
   -3.0488   39.8810    5.8902 O   0  0  0  0  0  0  0  0  0  0  0  0
   -2.5217   39.1181    6.1749 H   0  0  0  0  0  0  0  0  0  0  0  0
   -5.1953   38.9714    6.7605 O   0  0  0  0  0  0  0  0  0  0  0  0
   -6.4580   38.6124    7.7218 P   0  0  0  0  0  0  0  0  0  0  0  0
   -5.9247   37.7964    8.8639 O   0  0  0  0  0  0  0  0  0  0  0  0
   -7.0669   39.9408    8.1172 O   0  0  0  0  0  0  0  0  0  0  0  0
   -7.2831   37.7776    6.8269 O   0  0  0  0  0  0  0  0  0  0  0  0
   -7.8303   39.7872    8.6955 H   0  0  0  0  0  0  0  0  0  0  0  0
   -8.0837   37.4946    7.2958 H   0  0  0  0  0  0  0  0  0  0  0  0
 31 32  2  0  0  0
 31 33  1  0  0  0
 31 34  1  0  0  0
 31 30  1  0  0  0
 30 26  1  0  0  0
 26 27  2  0  0  0
 26 28  1  0  0  0
 26 25  1  0  0  0
 25 24  1  0  0  0
 24  1  1  0  0  0
  1  2  1  0  0  0
  1  3  1  0  0  0
  2  7  1  0  0  0
  3  4  1  0  0  0
  3  5  1  0  0  0
  5  6  1  0  0  0
  5  7  1  0  0  0
  7 10  1  0  0  0
 10 11  1  0  0  0
 10 20  1  0  0  0
 11 12  2  0  0  0
 12 13  1  0  0  0
 13 14  1  0  0  0
 13 20  2  0  0  0
 14 15  2  0  0  0
 14 16  1  0  0  0
 16 17  1  0  0  0
 17 18  1  0  0  0
 17 19  2  0  0  0
 19 20  1  0  0  0
 33 35  1  0  0  0
 34 36  1  0  0  0
 28 29  1  0  0  0
  4  8  1  0  0  0
  6  9  1  0  0  0
 16 21  1  0  0  0
 18 22  1  0  0  0
 18 23  1  0  0  0
M  END
> <minimizedAffinity>
-6.94307

$$$$
