2F80_017_B_301


 42 45  0  0  0  0  0  0  0  0999 V2000
   16.5451   24.4326   18.0685 C   0  0  0  0  0  0  0  0  0  0  0  0
   15.8444   25.4077   18.8196 O   0  0  0  0  0  0  0  0  0  0  0  0
   15.7468   25.1020   19.7350 H   0  0  0  0  0  0  0  0  0  0  0  0
   15.6993   23.1077   18.0586 C   0  0  0  0  0  0  0  0  0  0  0  0
   16.4406   22.1537   17.1272 N   0  0  0  0  0  0  0  0  0  0  0  0
   17.0669   20.6886   17.9806 S   0  0  0  0  0  0  0  0  0  0  0  0
   18.2238   21.0760   18.9237 O   0  0  0  0  0  0  0  0  0  0  0  0
   17.4465   19.6716   16.8341 O   0  0  0  0  0  0  0  0  0  0  0  0
   12.4945   18.5133   21.0808 N   0  0  0  0  0  0  0  0  0  0  0  0
   13.5311   18.9781   20.3296 C   0  0  0  0  0  0  0  0  0  0  0  0
   14.3224   19.9790   20.8884 C   0  0  0  0  0  0  0  0  0  0  0  0
   15.3964   20.4916   20.1639 C   0  0  0  0  0  0  0  0  0  0  0  0
   15.6430   19.9764   18.8886 C   0  0  0  0  0  0  0  0  0  0  0  0
   14.8685   18.9701   18.2938 C   0  0  0  0  0  0  0  0  0  0  0  0
   13.7851   18.4648   19.0460 C   0  0  0  0  0  0  0  0  0  0  0  0
   12.3315   18.8846   21.9780 H   0  0  0  0  0  0  0  0  0  0  0  0
   11.9083   17.8061   20.7267 H   0  0  0  0  0  0  0  0  0  0  0  0
   15.7500   21.9383   15.8179 C   0  0  0  0  0  0  0  0  0  0  0  0
   14.2076   21.9109   15.9867 C   0  0  0  0  0  0  0  0  0  0  0  0
   13.6453   23.0856   15.2055 C   0  0  0  0  0  0  0  0  0  0  0  0
   13.6916   20.5944   15.4142 C   0  0  0  0  0  0  0  0  0  0  0  0
   18.0094   24.2433   18.5547 C   0  0  0  0  0  0  0  0  0  0  0  0
   18.8155   25.2818   17.9576 N   0  0  0  0  0  0  0  0  0  0  0  0
   19.6408   25.1002   16.9069 C   0  0  0  0  0  0  0  0  0  0  0  0
   19.9052   23.9531   16.3964 O   0  0  0  0  0  0  0  0  0  0  0  0
   18.7586   26.1853   18.3445 H   0  0  0  0  0  0  0  0  0  0  0  0
   20.1790   26.3349   16.4406 O   0  0  0  0  0  0  0  0  0  0  0  0
   20.4268   26.4076   14.9917 C   0  0  0  0  0  0  0  0  0  0  0  0
   19.7223   27.6741   14.4519 C   0  0  0  0  0  0  0  0  0  0  0  0
   20.4685   28.8048   15.0021 O   0  0  0  0  0  0  0  0  0  0  0  0
   21.8114   28.3523   14.9848 C   0  0  0  0  0  0  0  0  0  0  0  0
   22.5846   28.7547   16.1000 O   0  0  0  0  0  0  0  0  0  0  0  0
   22.8566   27.4910   16.7452 C   0  0  0  0  0  0  0  0  0  0  0  0
   22.9789   26.4171   15.6592 C   0  0  0  0  0  0  0  0  0  0  0  0
   21.8675   26.8967   14.7589 C   0  0  0  0  0  0  0  0  0  0  0  0
   18.2793   24.3647   20.0750 C   0  0  0  0  0  0  0  0  0  0  0  0
   20.3540   25.4552   21.0762 C   0  0  0  0  0  0  0  0  0  0  0  0
   21.7089   25.4337   21.4306 C   0  0  0  0  0  0  0  0  0  0  0  0
   22.4706   24.2841   21.1632 C   0  0  0  0  0  0  0  0  0  0  0  0
   21.8748   23.1741   20.5492 C   0  0  0  0  0  0  0  0  0  0  0  0
   20.5155   23.1964   20.1949 C   0  0  0  0  0  0  0  0  0  0  0  0
   19.7573   24.3452   20.4626 C   0  0  0  0  0  0  0  0  0  0  0  0
  9 10  1  0  0  0
 10 11  2  0  0  0
 10 15  1  0  0  0
 11 12  1  0  0  0
 12 13  2  0  0  0
 13 14  1  0  0  0
 13  6  1  0  0  0
 14 15  2  0  0  0
  6  7  2  0  0  0
  6  8  2  0  0  0
  6  5  1  0  0  0
  5 18  1  0  0  0
  5  4  1  0  0  0
 18 19  1  0  0  0
 19 20  1  0  0  0
 19 21  1  0  0  0
  4  1  1  0  0  0
  1  2  1  0  0  0
  1 22  1  0  0  0
 22 23  1  0  0  0
 22 36  1  0  0  0
 23 24  1  0  0  0
 24 25  2  0  0  0
 24 27  1  0  0  0
 27 28  1  0  0  0
 28 29  1  0  0  0
 28 35  1  0  0  0
 29 30  1  0  0  0
 30 31  1  0  0  0
 31 32  1  0  0  0
 31 35  1  0  0  0
 32 33  1  0  0  0
 33 34  1  0  0  0
 34 35  1  0  0  0
 36 42  1  0  0  0
 37 38  2  0  0  0
 37 42  1  0  0  0
 38 39  1  0  0  0
 39 40  2  0  0  0
 40 41  1  0  0  0
 41 42  2  0  0  0
  9 16  1  0  0  0
  9 17  1  0  0  0
  2  3  1  0  0  0
 23 26  1  0  0  0
M  END
> <minimizedAffinity>
-10.20998

$$$$
2F80_017_B_301


 42 45  0  0  0  0  0  0  0  0999 V2000
   16.2626   24.5140   17.9370 C   0  0  0  0  0  0  0  0  0  0  0  0
   15.6308   25.4417   18.8009 O   0  0  0  0  0  0  0  0  0  0  0  0
   15.4363   25.0131   19.6491 H   0  0  0  0  0  0  0  0  0  0  0  0
   15.2711   23.3235   17.6721 C   0  0  0  0  0  0  0  0  0  0  0  0
   16.1231   22.0592   17.7256 N   0  0  0  0  0  0  0  0  0  0  0  0
   15.8834   21.1182   19.2501 S   0  0  0  0  0  0  0  0  0  0  0  0
   15.3198   22.0324   20.3567 O   0  0  0  0  0  0  0  0  0  0  0  0
   17.2894   20.4719   19.5637 O   0  0  0  0  0  0  0  0  0  0  0  0
   12.0132   16.8230   17.9002 N   0  0  0  0  0  0  0  0  0  0  0  0
   12.9406   17.7715   18.2085 C   0  0  0  0  0  0  0  0  0  0  0  0
   12.4802   19.0720   18.4005 C   0  0  0  0  0  0  0  0  0  0  0  0
   13.3855   20.0824   18.7176 C   0  0  0  0  0  0  0  0  0  0  0  0
   14.7377   19.7498   18.8330 C   0  0  0  0  0  0  0  0  0  0  0  0
   15.2377   18.4530   18.6467 C   0  0  0  0  0  0  0  0  0  0  0  0
   14.3026   17.4443   18.3261 C   0  0  0  0  0  0  0  0  0  0  0  0
   11.0635   17.0702   17.8219 H   0  0  0  0  0  0  0  0  0  0  0  0
   12.2926   15.8901   17.7556 H   0  0  0  0  0  0  0  0  0  0  0  0
   16.1336   21.2900   16.4428 C   0  0  0  0  0  0  0  0  0  0  0  0
   15.0906   21.8466   15.4377 C   0  0  0  0  0  0  0  0  0  0  0  0
   15.8240   22.1434   14.1414 C   0  0  0  0  0  0  0  0  0  0  0  0
   14.0280   20.7749   15.2153 C   0  0  0  0  0  0  0  0  0  0  0  0
   17.6585   24.0694   18.4569 C   0  0  0  0  0  0  0  0  0  0  0  0
   18.6531   24.9214   17.8490 N   0  0  0  0  0  0  0  0  0  0  0  0
   19.3457   24.6132   16.7340 C   0  0  0  0  0  0  0  0  0  0  0  0
   19.2953   23.4690   16.1554 O   0  0  0  0  0  0  0  0  0  0  0  0
   18.8385   25.7876   18.2785 H   0  0  0  0  0  0  0  0  0  0  0  0
   20.1359   25.7111   16.2846 O   0  0  0  0  0  0  0  0  0  0  0  0
   20.4897   25.6904   14.8562 C   0  0  0  0  0  0  0  0  0  0  0  0
   19.4127   26.4916   14.0880 C   0  0  0  0  0  0  0  0  0  0  0  0
   19.6008   27.8861   14.4855 O   0  0  0  0  0  0  0  0  0  0  0  0
   21.0078   28.0072   14.6048 C   0  0  0  0  0  0  0  0  0  0  0  0
   21.4416   28.8230   15.6770 O   0  0  0  0  0  0  0  0  0  0  0  0
   22.1099   27.8658   16.5280 C   0  0  0  0  0  0  0  0  0  0  0  0
   22.7528   26.8000   15.6345 C   0  0  0  0  0  0  0  0  0  0  0  0
   21.6456   26.6783   14.6172 C   0  0  0  0  0  0  0  0  0  0  0  0
   17.9242   24.1828   19.9785 C   0  0  0  0  0  0  0  0  0  0  0  0
   20.0240   22.7713   20.2852 C   0  0  0  0  0  0  0  0  0  0  0  0
   21.3664   22.6225   20.6564 C   0  0  0  0  0  0  0  0  0  0  0  0
   22.0750   23.7383   21.1323 C   0  0  0  0  0  0  0  0  0  0  0  0
   21.4399   24.9836   21.2310 C   0  0  0  0  0  0  0  0  0  0  0  0
   20.0936   25.1318   20.8576 C   0  0  0  0  0  0  0  0  0  0  0  0
   19.3884   24.0166   20.3831 C   0  0  0  0  0  0  0  0  0  0  0  0
  9 10  1  0  0  0
 10 11  2  0  0  0
 10 15  1  0  0  0
 11 12  1  0  0  0
 12 13  2  0  0  0
 13 14  1  0  0  0
 13  6  1  0  0  0
 14 15  2  0  0  0
  6  7  2  0  0  0
  6  8  2  0  0  0
  6  5  1  0  0  0
  5 18  1  0  0  0
  5  4  1  0  0  0
 18 19  1  0  0  0
 19 20  1  0  0  0
 19 21  1  0  0  0
  4  1  1  0  0  0
  1  2  1  0  0  0
  1 22  1  0  0  0
 22 23  1  0  0  0
 22 36  1  0  0  0
 23 24  1  0  0  0
 24 25  2  0  0  0
 24 27  1  0  0  0
 27 28  1  0  0  0
 28 29  1  0  0  0
 28 35  1  0  0  0
 29 30  1  0  0  0
 30 31  1  0  0  0
 31 32  1  0  0  0
 31 35  1  0  0  0
 32 33  1  0  0  0
 33 34  1  0  0  0
 34 35  1  0  0  0
 36 42  1  0  0  0
 37 38  2  0  0  0
 37 42  1  0  0  0
 38 39  1  0  0  0
 39 40  2  0  0  0
 40 41  1  0  0  0
 41 42  2  0  0  0
  9 16  1  0  0  0
  9 17  1  0  0  0
  2  3  1  0  0  0
 23 26  1  0  0  0
M  END
> <minimizedAffinity>
-9.86468

$$$$
2F80_017_B_301


 42 45  0  0  0  0  0  0  0  0999 V2000
   15.4751   23.7627   17.9960 C   0  0  0  0  0  0  0  0  0  0  0  0
   14.4349   24.5591   18.5343 O   0  0  0  0  0  0  0  0  0  0  0  0
   14.0135   25.0651   17.8221 H   0  0  0  0  0  0  0  0  0  0  0  0
   16.5540   24.7134   17.3614 C   0  0  0  0  0  0  0  0  0  0  0  0
   17.8640   23.9328   17.4008 N   0  0  0  0  0  0  0  0  0  0  0  0
   18.4893   23.5319   15.7530 S   0  0  0  0  0  0  0  0  0  0  0  0
   17.3160   23.2517   14.7923 O   0  0  0  0  0  0  0  0  0  0  0  0
   19.4837   22.3248   15.9693 O   0  0  0  0  0  0  0  0  0  0  0  0
   21.5552   28.3003   13.9887 N   0  0  0  0  0  0  0  0  0  0  0  0
   20.8988   27.1814   14.4035 C   0  0  0  0  0  0  0  0  0  0  0  0
   19.5068   27.2090   14.3620 C   0  0  0  0  0  0  0  0  0  0  0  0
   18.7840   26.0918   14.7750 C   0  0  0  0  0  0  0  0  0  0  0  0
   19.4907   24.9716   15.2205 C   0  0  0  0  0  0  0  0  0  0  0  0
   20.8904   24.9075   15.2766 C   0  0  0  0  0  0  0  0  0  0  0  0
   21.6029   26.0510   14.8531 C   0  0  0  0  0  0  0  0  0  0  0  0
   21.0457   29.0828   13.6769 H   0  0  0  0  0  0  0  0  0  0  0  0
   22.5393   28.3265   14.0006 H   0  0  0  0  0  0  0  0  0  0  0  0
   18.8481   24.4649   18.3938 C   0  0  0  0  0  0  0  0  0  0  0  0
   19.0109   23.5057   19.6027 C   0  0  0  0  0  0  0  0  0  0  0  0
   18.2541   24.1151   20.7699 C   0  0  0  0  0  0  0  0  0  0  0  0
   18.4076   22.1572   19.2223 C   0  0  0  0  0  0  0  0  0  0  0  0
   14.9480   22.6689   17.0253 C   0  0  0  0  0  0  0  0  0  0  0  0
   14.0594   21.8053   17.7664 N   0  0  0  0  0  0  0  0  0  0  0  0
   14.4475   20.6987   18.4319 C   0  0  0  0  0  0  0  0  0  0  0  0
   15.6329   20.2109   18.3763 O   0  0  0  0  0  0  0  0  0  0  0  0
   13.1037   22.0407   17.7873 H   0  0  0  0  0  0  0  0  0  0  0  0
   13.3810   20.1435   19.1973 O   0  0  0  0  0  0  0  0  0  0  0  0
   13.4469   18.6884   19.4079 C   0  0  0  0  0  0  0  0  0  0  0  0
   12.6735   18.3604   20.7064 C   0  0  0  0  0  0  0  0  0  0  0  0
   11.2664   18.6170   20.4025 O   0  0  0  0  0  0  0  0  0  0  0  0
   11.1381   18.1932   19.0562 C   0  0  0  0  0  0  0  0  0  0  0  0
   10.2871   18.9983   18.2620 O   0  0  0  0  0  0  0  0  0  0  0  0
   11.2147   19.5617   17.3085 C   0  0  0  0  0  0  0  0  0  0  0  0
   12.3072   18.5230   17.0345 C   0  0  0  0  0  0  0  0  0  0  0  0
   12.4644   18.0025   18.4417 C   0  0  0  0  0  0  0  0  0  0  0  0
   14.1130   23.1361   15.8073 C   0  0  0  0  0  0  0  0  0  0  0  0
   12.1868   21.8529   14.7402 C   0  0  0  0  0  0  0  0  0  0  0  0
   11.6887   20.8144   13.9430 C   0  0  0  0  0  0  0  0  0  0  0  0
   12.5882   19.9188   13.3412 C   0  0  0  0  0  0  0  0  0  0  0  0
   13.9673   20.0690   13.5397 C   0  0  0  0  0  0  0  0  0  0  0  0
   14.4658   21.1114   14.3389 C   0  0  0  0  0  0  0  0  0  0  0  0
   13.5660   22.0041   14.9387 C   0  0  0  0  0  0  0  0  0  0  0  0
  9 10  1  0  0  0
 10 11  2  0  0  0
 10 15  1  0  0  0
 11 12  1  0  0  0
 12 13  2  0  0  0
 13 14  1  0  0  0
 13  6  1  0  0  0
 14 15  2  0  0  0
  6  7  2  0  0  0
  6  8  2  0  0  0
  6  5  1  0  0  0
  5 18  1  0  0  0
  5  4  1  0  0  0
 18 19  1  0  0  0
 19 20  1  0  0  0
 19 21  1  0  0  0
  4  1  1  0  0  0
  1  2  1  0  0  0
  1 22  1  0  0  0
 22 23  1  0  0  0
 22 36  1  0  0  0
 23 24  1  0  0  0
 24 25  2  0  0  0
 24 27  1  0  0  0
 27 28  1  0  0  0
 28 29  1  0  0  0
 28 35  1  0  0  0
 29 30  1  0  0  0
 30 31  1  0  0  0
 31 32  1  0  0  0
 31 35  1  0  0  0
 32 33  1  0  0  0
 33 34  1  0  0  0
 34 35  1  0  0  0
 36 42  1  0  0  0
 37 38  2  0  0  0
 37 42  1  0  0  0
 38 39  1  0  0  0
 39 40  2  0  0  0
 40 41  1  0  0  0
 41 42  2  0  0  0
  9 16  1  0  0  0
  9 17  1  0  0  0
  2  3  1  0  0  0
 23 26  1  0  0  0
M  END
> <minimizedAffinity>
-9.67868

$$$$
2F80_017_B_301


 42 45  0  0  0  0  0  0  0  0999 V2000
   18.3416   24.9857   15.4957 C   0  0  0  0  0  0  0  0  0  0  0  0
   17.4920   25.7403   14.6502 O   0  0  0  0  0  0  0  0  0  0  0  0
   17.2244   26.5547   15.1041 H   0  0  0  0  0  0  0  0  0  0  0  0
   17.5367   24.5893   16.7863 C   0  0  0  0  0  0  0  0  0  0  0  0
   16.9585   23.2066   16.5016 N   0  0  0  0  0  0  0  0  0  0  0  0
   17.8028   21.8940   17.4134 S   0  0  0  0  0  0  0  0  0  0  0  0
   18.8874   22.4956   18.3298 O   0  0  0  0  0  0  0  0  0  0  0  0
   18.3328   20.8972   16.3096 O   0  0  0  0  0  0  0  0  0  0  0  0
   13.6189   19.1856   20.6397 N   0  0  0  0  0  0  0  0  0  0  0  0
   14.5721   19.7691   19.8616 C   0  0  0  0  0  0  0  0  0  0  0  0
   15.1902   20.9121   20.3632 C   0  0  0  0  0  0  0  0  0  0  0  0
   16.1726   21.5501   19.6090 C   0  0  0  0  0  0  0  0  0  0  0  0
   16.5057   21.0133   18.3627 C   0  0  0  0  0  0  0  0  0  0  0  0
   15.9054   19.8656   17.8253 C   0  0  0  0  0  0  0  0  0  0  0  0
   14.9123   19.2348   18.6067 C   0  0  0  0  0  0  0  0  0  0  0  0
   13.3934   19.5736   21.5160 H   0  0  0  0  0  0  0  0  0  0  0  0
   13.1552   18.3758   20.3260 H   0  0  0  0  0  0  0  0  0  0  0  0
   15.4631   23.1747   16.4867 C   0  0  0  0  0  0  0  0  0  0  0  0
   14.9249   22.2895   15.3314 C   0  0  0  0  0  0  0  0  0  0  0  0
   13.6077   22.8918   14.8747 C   0  0  0  0  0  0  0  0  0  0  0  0
   15.9453   22.3180   14.1978 C   0  0  0  0  0  0  0  0  0  0  0  0
   19.6871   25.7074   15.7876 C   0  0  0  0  0  0  0  0  0  0  0  0
   20.3211   25.0371   16.8983 N   0  0  0  0  0  0  0  0  0  0  0  0
   20.7313   25.6492   18.0275 C   0  0  0  0  0  0  0  0  0  0  0  0
   20.7242   26.9215   18.1932 O   0  0  0  0  0  0  0  0  0  0  0  0
   20.4637   24.0657   16.8261 H   0  0  0  0  0  0  0  0  0  0  0  0
   21.1718   24.7100   19.0050 O   0  0  0  0  0  0  0  0  0  0  0  0
   20.8236   25.0385   20.3968 C   0  0  0  0  0  0  0  0  0  0  0  0
   20.4598   23.7204   21.1195 C   0  0  0  0  0  0  0  0  0  0  0  0
   21.7113   22.9722   21.2283 O   0  0  0  0  0  0  0  0  0  0  0  0
   22.6780   23.9811   21.4655 C   0  0  0  0  0  0  0  0  0  0  0  0
   23.9220   23.7695   20.8245 O   0  0  0  0  0  0  0  0  0  0  0  0
   23.9641   24.8676   19.8866 C   0  0  0  0  0  0  0  0  0  0  0  0
   23.2502   26.0653   20.5216 C   0  0  0  0  0  0  0  0  0  0  0  0
   22.1193   25.3150   21.1802 C   0  0  0  0  0  0  0  0  0  0  0  0
   20.7571   25.7054   14.6678 C   0  0  0  0  0  0  0  0  0  0  0  0
   21.3752   28.0714   13.9495 C   0  0  0  0  0  0  0  0  0  0  0  0
   22.2325   29.1790   13.9605 C   0  0  0  0  0  0  0  0  0  0  0  0
   23.4192   29.1214   14.7100 C   0  0  0  0  0  0  0  0  0  0  0  0
   23.7352   27.9658   15.4370 C   0  0  0  0  0  0  0  0  0  0  0  0
   22.8742   26.8557   15.4259 C   0  0  0  0  0  0  0  0  0  0  0  0
   21.6903   26.9155   14.6769 C   0  0  0  0  0  0  0  0  0  0  0  0
  9 10  1  0  0  0
 10 11  2  0  0  0
 10 15  1  0  0  0
 11 12  1  0  0  0
 12 13  2  0  0  0
 13 14  1  0  0  0
 13  6  1  0  0  0
 14 15  2  0  0  0
  6  7  2  0  0  0
  6  8  2  0  0  0
  6  5  1  0  0  0
  5 18  1  0  0  0
  5  4  1  0  0  0
 18 19  1  0  0  0
 19 20  1  0  0  0
 19 21  1  0  0  0
  4  1  1  0  0  0
  1  2  1  0  0  0
  1 22  1  0  0  0
 22 23  1  0  0  0
 22 36  1  0  0  0
 23 24  1  0  0  0
 24 25  2  0  0  0
 24 27  1  0  0  0
 27 28  1  0  0  0
 28 29  1  0  0  0
 28 35  1  0  0  0
 29 30  1  0  0  0
 30 31  1  0  0  0
 31 32  1  0  0  0
 31 35  1  0  0  0
 32 33  1  0  0  0
 33 34  1  0  0  0
 34 35  1  0  0  0
 36 42  1  0  0  0
 37 38  2  0  0  0
 37 42  1  0  0  0
 38 39  1  0  0  0
 39 40  2  0  0  0
 40 41  1  0  0  0
 41 42  2  0  0  0
  9 16  1  0  0  0
  9 17  1  0  0  0
  2  3  1  0  0  0
 23 26  1  0  0  0
M  END
> <minimizedAffinity>
-9.59693

$$$$
2F80_017_B_301


 42 45  0  0  0  0  0  0  0  0999 V2000
   16.3981   23.0640   16.8015 C   0  0  0  0  0  0  0  0  0  0  0  0
   16.2466   24.3748   16.2869 O   0  0  0  0  0  0  0  0  0  0  0  0
   16.5509   24.3980   15.3662 H   0  0  0  0  0  0  0  0  0  0  0  0
   17.9251   22.6920   16.7773 C   0  0  0  0  0  0  0  0  0  0  0  0
   18.5985   23.6556   17.7495 N   0  0  0  0  0  0  0  0  0  0  0  0
   18.8196   22.9463   19.3972 S   0  0  0  0  0  0  0  0  0  0  0  0
   19.0278   21.4216   19.2964 O   0  0  0  0  0  0  0  0  0  0  0  0
   17.5483   23.3981   20.2171 O   0  0  0  0  0  0  0  0  0  0  0  0
   23.3862   25.8498   21.8395 N   0  0  0  0  0  0  0  0  0  0  0  0
   22.3731   25.1452   21.2635 C   0  0  0  0  0  0  0  0  0  0  0  0
   21.0953   25.6950   21.3354 C   0  0  0  0  0  0  0  0  0  0  0  0
   20.0213   25.0165   20.7631 C   0  0  0  0  0  0  0  0  0  0  0  0
   20.2688   23.7954   20.1306 C   0  0  0  0  0  0  0  0  0  0  0  0
   21.5403   23.2112   20.0389 C   0  0  0  0  0  0  0  0  0  0  0  0
   22.6144   23.9161   20.6257 C   0  0  0  0  0  0  0  0  0  0  0  0
   23.1987   26.7091   22.2820 H   0  0  0  0  0  0  0  0  0  0  0  0
   24.3061   25.5000   21.8134 H   0  0  0  0  0  0  0  0  0  0  0  0
   19.7626   24.3858   17.1585 C   0  0  0  0  0  0  0  0  0  0  0  0
   19.4425   25.8893   16.9468 C   0  0  0  0  0  0  0  0  0  0  0  0
   20.6283   26.6828   17.4671 C   0  0  0  0  0  0  0  0  0  0  0  0
   19.2562   26.1283   15.4517 C   0  0  0  0  0  0  0  0  0  0  0  0
   15.4852   22.0314   16.0827 C   0  0  0  0  0  0  0  0  0  0  0  0
   14.8571   21.2123   17.0923 N   0  0  0  0  0  0  0  0  0  0  0  0
   14.3032   21.6869   18.2262 C   0  0  0  0  0  0  0  0  0  0  0  0
   14.3851   22.9106   18.6032 O   0  0  0  0  0  0  0  0  0  0  0  0
   14.8314   20.2396   16.9422 H   0  0  0  0  0  0  0  0  0  0  0  0
   13.6222   20.6636   18.9479 O   0  0  0  0  0  0  0  0  0  0  0  0
   14.4719   19.5676   19.4409 C   0  0  0  0  0  0  0  0  0  0  0  0
   14.5932   19.7137   20.9757 C   0  0  0  0  0  0  0  0  0  0  0  0
   13.2658   19.4073   21.5069 O   0  0  0  0  0  0  0  0  0  0  0  0
   12.8033   18.3707   20.6584 C   0  0  0  0  0  0  0  0  0  0  0  0
   11.4242   18.4339   20.3463 O   0  0  0  0  0  0  0  0  0  0  0  0
   11.4521   18.6916   18.9251 C   0  0  0  0  0  0  0  0  0  0  0  0
   12.6759   17.9829   18.3355 C   0  0  0  0  0  0  0  0  0  0  0  0
   13.6470   18.2681   19.4540 C   0  0  0  0  0  0  0  0  0  0  0  0
   14.3090   22.5822   15.2389 C   0  0  0  0  0  0  0  0  0  0  0  0
   12.0711   21.4399   14.8111 C   0  0  0  0  0  0  0  0  0  0  0  0
   11.2865   20.4569   14.1948 C   0  0  0  0  0  0  0  0  0  0  0  0
   11.8963   19.5355   13.3272 C   0  0  0  0  0  0  0  0  0  0  0  0
   13.2748   19.6055   13.0849 C   0  0  0  0  0  0  0  0  0  0  0  0
   14.0607   20.5924   13.7031 C   0  0  0  0  0  0  0  0  0  0  0  0
   13.4498   21.5108   14.5688 C   0  0  0  0  0  0  0  0  0  0  0  0
  9 10  1  0  0  0
 10 11  2  0  0  0
 10 15  1  0  0  0
 11 12  1  0  0  0
 12 13  2  0  0  0
 13 14  1  0  0  0
 13  6  1  0  0  0
 14 15  2  0  0  0
  6  7  2  0  0  0
  6  8  2  0  0  0
  6  5  1  0  0  0
  5 18  1  0  0  0
  5  4  1  0  0  0
 18 19  1  0  0  0
 19 20  1  0  0  0
 19 21  1  0  0  0
  4  1  1  0  0  0
  1  2  1  0  0  0
  1 22  1  0  0  0
 22 23  1  0  0  0
 22 36  1  0  0  0
 23 24  1  0  0  0
 24 25  2  0  0  0
 24 27  1  0  0  0
 27 28  1  0  0  0
 28 29  1  0  0  0
 28 35  1  0  0  0
 29 30  1  0  0  0
 30 31  1  0  0  0
 31 32  1  0  0  0
 31 35  1  0  0  0
 32 33  1  0  0  0
 33 34  1  0  0  0
 34 35  1  0  0  0
 36 42  1  0  0  0
 37 38  2  0  0  0
 37 42  1  0  0  0
 38 39  1  0  0  0
 39 40  2  0  0  0
 40 41  1  0  0  0
 41 42  2  0  0  0
  9 16  1  0  0  0
  9 17  1  0  0  0
  2  3  1  0  0  0
 23 26  1  0  0  0
M  END
> <minimizedAffinity>
-9.55851

$$$$
2F80_017_B_301


 42 45  0  0  0  0  0  0  0  0999 V2000
   18.0286   24.1314   19.3823 C   0  0  0  0  0  0  0  0  0  0  0  0
   17.3469   24.4721   20.5761 O   0  0  0  0  0  0  0  0  0  0  0  0
   17.6184   23.8701   21.2865 H   0  0  0  0  0  0  0  0  0  0  0  0
   17.6193   22.6699   18.9736 C   0  0  0  0  0  0  0  0  0  0  0  0
   16.3333   22.8138   18.1657 N   0  0  0  0  0  0  0  0  0  0  0  0
   16.6108   22.7001   16.3832 S   0  0  0  0  0  0  0  0  0  0  0  0
   17.7470   21.7014   16.0842 O   0  0  0  0  0  0  0  0  0  0  0  0
   16.8773   24.1826   15.9097 O   0  0  0  0  0  0  0  0  0  0  0  0
   11.3794   21.1950   14.0131 N   0  0  0  0  0  0  0  0  0  0  0  0
   12.5947   21.4886   14.5531 C   0  0  0  0  0  0  0  0  0  0  0  0
   12.8282   22.8145   14.9100 C   0  0  0  0  0  0  0  0  0  0  0  0
   14.0545   23.1713   15.4667 C   0  0  0  0  0  0  0  0  0  0  0  0
   15.0161   22.1740   15.6488 C   0  0  0  0  0  0  0  0  0  0  0  0
   14.8172   20.8300   15.3015 C   0  0  0  0  0  0  0  0  0  0  0  0
   13.5670   20.4906   14.7390 C   0  0  0  0  0  0  0  0  0  0  0  0
   10.7105   21.9068   13.8902 H   0  0  0  0  0  0  0  0  0  0  0  0
   11.1698   20.2710   13.7456 H   0  0  0  0  0  0  0  0  0  0  0  0
   15.1832   22.0405   18.7284 C   0  0  0  0  0  0  0  0  0  0  0  0
   15.6568   20.7211   19.3940 C   0  0  0  0  0  0  0  0  0  0  0  0
   14.9700   20.6231   20.7449 C   0  0  0  0  0  0  0  0  0  0  0  0
   15.2367   19.5606   18.4973 C   0  0  0  0  0  0  0  0  0  0  0  0
   19.5639   24.3508   19.4883 C   0  0  0  0  0  0  0  0  0  0  0  0
   19.9249   25.4204   18.5881 N   0  0  0  0  0  0  0  0  0  0  0  0
   20.0923   25.2767   17.2579 C   0  0  0  0  0  0  0  0  0  0  0  0
   20.0777   24.1444   16.6546 O   0  0  0  0  0  0  0  0  0  0  0  0
   20.0581   26.3171   18.9722 H   0  0  0  0  0  0  0  0  0  0  0  0
   20.2877   26.5328   16.6131 O   0  0  0  0  0  0  0  0  0  0  0  0
   20.4630   26.4715   15.1531 C   0  0  0  0  0  0  0  0  0  0  0  0
   19.7668   27.7081   14.5384 C   0  0  0  0  0  0  0  0  0  0  0  0
   20.5708   28.8581   14.9498 O   0  0  0  0  0  0  0  0  0  0  0  0
   21.8981   28.3633   14.9074 C   0  0  0  0  0  0  0  0  0  0  0  0
   22.7381   28.8362   15.9438 O   0  0  0  0  0  0  0  0  0  0  0  0
   23.0080   27.6253   16.6842 C   0  0  0  0  0  0  0  0  0  0  0  0
   23.0451   26.4579   15.6926 C   0  0  0  0  0  0  0  0  0  0  0  0
   21.9028   26.8926   14.8084 C   0  0  0  0  0  0  0  0  0  0  0  0
   20.1305   24.7882   20.8618 C   0  0  0  0  0  0  0  0  0  0  0  0
   22.4287   23.8171   20.3409 C   0  0  0  0  0  0  0  0  0  0  0  0
   23.8271   23.8515   20.4134 C   0  0  0  0  0  0  0  0  0  0  0  0
   24.4535   24.9071   21.0964 C   0  0  0  0  0  0  0  0  0  0  0  0
   23.6819   25.9119   21.6955 C   0  0  0  0  0  0  0  0  0  0  0  0
   22.2794   25.8769   21.6214 C   0  0  0  0  0  0  0  0  0  0  0  0
   21.6563   24.8220   20.9393 C   0  0  0  0  0  0  0  0  0  0  0  0
  9 10  1  0  0  0
 10 11  2  0  0  0
 10 15  1  0  0  0
 11 12  1  0  0  0
 12 13  2  0  0  0
 13 14  1  0  0  0
 13  6  1  0  0  0
 14 15  2  0  0  0
  6  7  2  0  0  0
  6  8  2  0  0  0
  6  5  1  0  0  0
  5 18  1  0  0  0
  5  4  1  0  0  0
 18 19  1  0  0  0
 19 20  1  0  0  0
 19 21  1  0  0  0
  4  1  1  0  0  0
  1  2  1  0  0  0
  1 22  1  0  0  0
 22 23  1  0  0  0
 22 36  1  0  0  0
 23 24  1  0  0  0
 24 25  2  0  0  0
 24 27  1  0  0  0
 27 28  1  0  0  0
 28 29  1  0  0  0
 28 35  1  0  0  0
 29 30  1  0  0  0
 30 31  1  0  0  0
 31 32  1  0  0  0
 31 35  1  0  0  0
 32 33  1  0  0  0
 33 34  1  0  0  0
 34 35  1  0  0  0
 36 42  1  0  0  0
 37 38  2  0  0  0
 37 42  1  0  0  0
 38 39  1  0  0  0
 39 40  2  0  0  0
 40 41  1  0  0  0
 41 42  2  0  0  0
  9 16  1  0  0  0
  9 17  1  0  0  0
  2  3  1  0  0  0
 23 26  1  0  0  0
M  END
> <minimizedAffinity>
-9.52769

$$$$
2F80_017_B_301


 42 45  0  0  0  0  0  0  0  0999 V2000
   11.0483   19.9680   15.8756 C   0  0  0  0  0  0  0  0  0  0  0  0
   10.2211   21.0810   15.5874 O   0  0  0  0  0  0  0  0  0  0  0  0
   10.6550   21.8936   15.8912 H   0  0  0  0  0  0  0  0  0  0  0  0
   11.2345   19.8748   17.4335 C   0  0  0  0  0  0  0  0  0  0  0  0
   11.5385   18.4084   17.7242 N   0  0  0  0  0  0  0  0  0  0  0  0
   12.3866   18.1695   19.3024 S   0  0  0  0  0  0  0  0  0  0  0  0
   12.6770   16.6720   19.5290 O   0  0  0  0  0  0  0  0  0  0  0  0
   11.4518   18.8435   20.3816 O   0  0  0  0  0  0  0  0  0  0  0  0
   17.3181   21.4743   19.2120 N   0  0  0  0  0  0  0  0  0  0  0  0
   16.1998   20.6976   19.1837 C   0  0  0  0  0  0  0  0  0  0  0  0
   15.3553   20.7586   20.2897 C   0  0  0  0  0  0  0  0  0  0  0  0
   14.1970   19.9846   20.3143 C   0  0  0  0  0  0  0  0  0  0  0  0
   13.9220   19.1664   19.2154 C   0  0  0  0  0  0  0  0  0  0  0  0
   14.7481   19.0788   18.0857 C   0  0  0  0  0  0  0  0  0  0  0  0
   15.9168   19.8719   18.0818 C   0  0  0  0  0  0  0  0  0  0  0  0
   17.5003   22.0466   19.9921 H   0  0  0  0  0  0  0  0  0  0  0  0
   17.9442   21.4636   18.4523 H   0  0  0  0  0  0  0  0  0  0  0  0
   10.4006   17.4884   17.4144 C   0  0  0  0  0  0  0  0  0  0  0  0
   10.8625   16.2829   16.5533 C   0  0  0  0  0  0  0  0  0  0  0  0
   10.4975   15.0184   17.3110 C   0  0  0  0  0  0  0  0  0  0  0  0
   10.1199   16.3394   15.2219 C   0  0  0  0  0  0  0  0  0  0  0  0
   12.3838   19.9952   15.0806 C   0  0  0  0  0  0  0  0  0  0  0  0
   12.2701   19.0613   13.9852 N   0  0  0  0  0  0  0  0  0  0  0  0
   11.4924   19.2472   12.8996 C   0  0  0  0  0  0  0  0  0  0  0  0
   10.6616   20.2168   12.7738 O   0  0  0  0  0  0  0  0  0  0  0  0
   12.7971   18.2312   14.0345 H   0  0  0  0  0  0  0  0  0  0  0  0
   11.7081   18.2362   11.9182 O   0  0  0  0  0  0  0  0  0  0  0  0
   10.5604   17.3511   11.6621 C   0  0  0  0  0  0  0  0  0  0  0  0
   10.1377   17.5360   10.1859 C   0  0  0  0  0  0  0  0  0  0  0  0
   11.2212   16.9602    9.3906 O   0  0  0  0  0  0  0  0  0  0  0  0
   11.6313   15.8400   10.1558 C   0  0  0  0  0  0  0  0  0  0  0  0
   13.0271   15.6054   10.1582 O   0  0  0  0  0  0  0  0  0  0  0  0
   13.3673   15.8479   11.5412 C   0  0  0  0  0  0  0  0  0  0  0  0
   12.1826   15.4092   12.4081 C   0  0  0  0  0  0  0  0  0  0  0  0
   11.0710   15.9063   11.5176 C   0  0  0  0  0  0  0  0  0  0  0  0
   12.7917   21.3321   14.4134 C   0  0  0  0  0  0  0  0  0  0  0  0
   15.2796   21.8622   14.2544 C   0  0  0  0  0  0  0  0  0  0  0  0
   16.4536   22.4330   14.7623 C   0  0  0  0  0  0  0  0  0  0  0  0
   16.4140   23.1004   15.9977 C   0  0  0  0  0  0  0  0  0  0  0  0
   15.2097   23.1912   16.7085 C   0  0  0  0  0  0  0  0  0  0  0  0
   14.0326   22.6190   16.1978 C   0  0  0  0  0  0  0  0  0  0  0  0
   14.0746   21.9531   14.9646 C   0  0  0  0  0  0  0  0  0  0  0  0
  9 10  1  0  0  0
 10 11  2  0  0  0
 10 15  1  0  0  0
 11 12  1  0  0  0
 12 13  2  0  0  0
 13 14  1  0  0  0
 13  6  1  0  0  0
 14 15  2  0  0  0
  6  7  2  0  0  0
  6  8  2  0  0  0
  6  5  1  0  0  0
  5 18  1  0  0  0
  5  4  1  0  0  0
 18 19  1  0  0  0
 19 20  1  0  0  0
 19 21  1  0  0  0
  4  1  1  0  0  0
  1  2  1  0  0  0
  1 22  1  0  0  0
 22 23  1  0  0  0
 22 36  1  0  0  0
 23 24  1  0  0  0
 24 25  2  0  0  0
 24 27  1  0  0  0
 27 28  1  0  0  0
 28 29  1  0  0  0
 28 35  1  0  0  0
 29 30  1  0  0  0
 30 31  1  0  0  0
 31 32  1  0  0  0
 31 35  1  0  0  0
 32 33  1  0  0  0
 33 34  1  0  0  0
 34 35  1  0  0  0
 36 42  1  0  0  0
 37 38  2  0  0  0
 37 42  1  0  0  0
 38 39  1  0  0  0
 39 40  2  0  0  0
 40 41  1  0  0  0
 41 42  2  0  0  0
  9 16  1  0  0  0
  9 17  1  0  0  0
  2  3  1  0  0  0
 23 26  1  0  0  0
M  END
> <minimizedAffinity>
-9.31974

$$$$
2F80_017_B_301


 42 45  0  0  0  0  0  0  0  0999 V2000
   17.1847   21.7708   16.7523 C   0  0  0  0  0  0  0  0  0  0  0  0
   18.2692   21.0177   16.2397 O   0  0  0  0  0  0  0  0  0  0  0  0
   18.0210   20.6350   15.3836 H   0  0  0  0  0  0  0  0  0  0  0  0
   15.9677   20.8023   16.9793 C   0  0  0  0  0  0  0  0  0  0  0  0
   16.0321   20.3987   18.4490 N   0  0  0  0  0  0  0  0  0  0  0  0
   15.9138   21.8127   19.5686 S   0  0  0  0  0  0  0  0  0  0  0  0
   15.2280   21.3935   20.8846 O   0  0  0  0  0  0  0  0  0  0  0  0
   15.1621   22.9312   18.7458 O   0  0  0  0  0  0  0  0  0  0  0  0
   21.5365   23.5081   20.4403 N   0  0  0  0  0  0  0  0  0  0  0  0
   20.2321   23.1713   20.2407 C   0  0  0  0  0  0  0  0  0  0  0  0
   19.9331   21.8140   20.1484 C   0  0  0  0  0  0  0  0  0  0  0  0
   18.6147   21.4125   19.9441 C   0  0  0  0  0  0  0  0  0  0  0  0
   17.6296   22.3978   19.8384 C   0  0  0  0  0  0  0  0  0  0  0  0
   17.8927   23.7724   19.9258 C   0  0  0  0  0  0  0  0  0  0  0  0
   19.2358   24.1570   20.1332 C   0  0  0  0  0  0  0  0  0  0  0  0
   22.2211   22.8043   20.5132 H   0  0  0  0  0  0  0  0  0  0  0  0
   21.7949   24.4554   20.5118 H   0  0  0  0  0  0  0  0  0  0  0  0
   15.2034   19.1972   18.7765 C   0  0  0  0  0  0  0  0  0  0  0  0
   13.7092   19.5714   18.9646 C   0  0  0  0  0  0  0  0  0  0  0  0
   13.0069   19.3106   17.6435 C   0  0  0  0  0  0  0  0  0  0  0  0
   13.1317   18.6805   20.0600 C   0  0  0  0  0  0  0  0  0  0  0  0
   16.8507   23.0096   15.8747 C   0  0  0  0  0  0  0  0  0  0  0  0
   18.0521   23.7995   15.7421 N   0  0  0  0  0  0  0  0  0  0  0  0
   18.2582   24.9856   16.3492 C   0  0  0  0  0  0  0  0  0  0  0  0
   17.3579   25.6141   17.0130 O   0  0  0  0  0  0  0  0  0  0  0  0
   18.7706   23.4475   15.1685 H   0  0  0  0  0  0  0  0  0  0  0  0
   19.5927   25.4492   16.1595 O   0  0  0  0  0  0  0  0  0  0  0  0
   20.0355   25.5400   14.7588 C   0  0  0  0  0  0  0  0  0  0  0  0
   19.0393   26.4505   14.0035 C   0  0  0  0  0  0  0  0  0  0  0  0
   19.2523   27.7953   14.5366 O   0  0  0  0  0  0  0  0  0  0  0  0
   20.6524   27.8462   14.7505 C   0  0  0  0  0  0  0  0  0  0  0  0
   21.0467   28.5452   15.9164 O   0  0  0  0  0  0  0  0  0  0  0  0
   21.6244   27.4893   16.7155 C   0  0  0  0  0  0  0  0  0  0  0  0
   22.2835   26.4807   15.7690 C   0  0  0  0  0  0  0  0  0  0  0  0
   21.2393   26.4959   14.6803 C   0  0  0  0  0  0  0  0  0  0  0  0
   16.3903   22.7512   14.4186 C   0  0  0  0  0  0  0  0  0  0  0  0
   13.8944   22.6562   14.9255 C   0  0  0  0  0  0  0  0  0  0  0  0
   12.6341   22.0563   14.8074 C   0  0  0  0  0  0  0  0  0  0  0  0
   12.5005   20.8836   14.0456 C   0  0  0  0  0  0  0  0  0  0  0  0
   13.6196   20.3259   13.4128 C   0  0  0  0  0  0  0  0  0  0  0  0
   14.8830   20.9289   13.5314 C   0  0  0  0  0  0  0  0  0  0  0  0
   15.0140   22.0993   14.2924 C   0  0  0  0  0  0  0  0  0  0  0  0
  9 10  1  0  0  0
 10 11  2  0  0  0
 10 15  1  0  0  0
 11 12  1  0  0  0
 12 13  2  0  0  0
 13 14  1  0  0  0
 13  6  1  0  0  0
 14 15  2  0  0  0
  6  7  2  0  0  0
  6  8  2  0  0  0
  6  5  1  0  0  0
  5 18  1  0  0  0
  5  4  1  0  0  0
 18 19  1  0  0  0
 19 20  1  0  0  0
 19 21  1  0  0  0
  4  1  1  0  0  0
  1  2  1  0  0  0
  1 22  1  0  0  0
 22 23  1  0  0  0
 22 36  1  0  0  0
 23 24  1  0  0  0
 24 25  2  0  0  0
 24 27  1  0  0  0
 27 28  1  0  0  0
 28 29  1  0  0  0
 28 35  1  0  0  0
 29 30  1  0  0  0
 30 31  1  0  0  0
 31 32  1  0  0  0
 31 35  1  0  0  0
 32 33  1  0  0  0
 33 34  1  0  0  0
 34 35  1  0  0  0
 36 42  1  0  0  0
 37 38  2  0  0  0
 37 42  1  0  0  0
 38 39  1  0  0  0
 39 40  2  0  0  0
 40 41  1  0  0  0
 41 42  2  0  0  0
  9 16  1  0  0  0
  9 17  1  0  0  0
  2  3  1  0  0  0
 23 26  1  0  0  0
M  END
> <minimizedAffinity>
-8.99824

$$$$
2F80_017_B_301


 42 45  0  0  0  0  0  0  0  0999 V2000
   10.9937   20.1096   15.7750 C   0  0  0  0  0  0  0  0  0  0  0  0
    9.9743   21.0867   15.6641 O   0  0  0  0  0  0  0  0  0  0  0  0
   10.3135   21.9436   15.9667 H   0  0  0  0  0  0  0  0  0  0  0  0
   11.3931   19.9750   17.2892 C   0  0  0  0  0  0  0  0  0  0  0  0
   11.5796   18.4809   17.5340 N   0  0  0  0  0  0  0  0  0  0  0  0
   12.3003   18.1217   19.1522 S   0  0  0  0  0  0  0  0  0  0  0  0
   12.5083   16.6026   19.3167 O   0  0  0  0  0  0  0  0  0  0  0  0
   11.3200   18.7829   20.1985 O   0  0  0  0  0  0  0  0  0  0  0  0
   17.3622   21.1940   19.5850 N   0  0  0  0  0  0  0  0  0  0  0  0
   16.2172   20.4717   19.4372 C   0  0  0  0  0  0  0  0  0  0  0  0
   15.2885   20.5333   20.4735 C   0  0  0  0  0  0  0  0  0  0  0  0
   14.0994   19.8139   20.3753 C   0  0  0  0  0  0  0  0  0  0  0  0
   13.8797   19.0484   19.2271 C   0  0  0  0  0  0  0  0  0  0  0  0
   14.7909   18.9618   18.1647 C   0  0  0  0  0  0  0  0  0  0  0  0
   15.9894   19.6992   18.2851 C   0  0  0  0  0  0  0  0  0  0  0  0
   17.5049   21.7294   20.3987 H   0  0  0  0  0  0  0  0  0  0  0  0
   18.0473   21.1806   18.8781 H   0  0  0  0  0  0  0  0  0  0  0  0
   10.4075   17.6540   17.1097 C   0  0  0  0  0  0  0  0  0  0  0  0
   10.8551   16.4007   16.3117 C   0  0  0  0  0  0  0  0  0  0  0  0
   10.4595   15.1806   17.1247 C   0  0  0  0  0  0  0  0  0  0  0  0
   10.1264   16.4071   14.9715 C   0  0  0  0  0  0  0  0  0  0  0  0
   12.1941   20.3892   14.8278 C   0  0  0  0  0  0  0  0  0  0  0  0
   13.2764   20.9185   15.6235 N   0  0  0  0  0  0  0  0  0  0  0  0
   14.3446   21.5719   15.1234 C   0  0  0  0  0  0  0  0  0  0  0  0
   14.5891   21.6858   13.8690 O   0  0  0  0  0  0  0  0  0  0  0  0
   13.2313   20.7937   16.5990 H   0  0  0  0  0  0  0  0  0  0  0  0
   15.1618   22.1140   16.1578 O   0  0  0  0  0  0  0  0  0  0  0  0
   15.0857   23.5747   16.3212 C   0  0  0  0  0  0  0  0  0  0  0  0
   14.8548   23.8739   17.8208 C   0  0  0  0  0  0  0  0  0  0  0  0
   16.0983   23.5005   18.4933 O   0  0  0  0  0  0  0  0  0  0  0  0
   17.1004   23.8789   17.5653 C   0  0  0  0  0  0  0  0  0  0  0  0
   18.1989   22.9899   17.4870 O   0  0  0  0  0  0  0  0  0  0  0  0
   18.0716   22.4768   16.1425 C   0  0  0  0  0  0  0  0  0  0  0  0
   17.5003   23.5905   15.2588 C   0  0  0  0  0  0  0  0  0  0  0  0
   16.5084   24.1570   16.2442 C   0  0  0  0  0  0  0  0  0  0  0  0
   12.8124   19.1811   14.0814 C   0  0  0  0  0  0  0  0  0  0  0  0
   12.2157   17.4645   12.2945 C   0  0  0  0  0  0  0  0  0  0  0  0
   11.5168   17.0728   11.1456 C   0  0  0  0  0  0  0  0  0  0  0  0
   10.6462   17.9852   10.5268 C   0  0  0  0  0  0  0  0  0  0  0  0
   10.4827   19.2713   11.0591 C   0  0  0  0  0  0  0  0  0  0  0  0
   11.1836   19.6628   12.2120 C   0  0  0  0  0  0  0  0  0  0  0  0
   12.0522   18.7504   12.8278 C   0  0  0  0  0  0  0  0  0  0  0  0
  9 10  1  0  0  0
 10 11  2  0  0  0
 10 15  1  0  0  0
 11 12  1  0  0  0
 12 13  2  0  0  0
 13 14  1  0  0  0
 13  6  1  0  0  0
 14 15  2  0  0  0
  6  7  2  0  0  0
  6  8  2  0  0  0
  6  5  1  0  0  0
  5 18  1  0  0  0
  5  4  1  0  0  0
 18 19  1  0  0  0
 19 20  1  0  0  0
 19 21  1  0  0  0
  4  1  1  0  0  0
  1  2  1  0  0  0
  1 22  1  0  0  0
 22 23  1  0  0  0
 22 36  1  0  0  0
 23 24  1  0  0  0
 24 25  2  0  0  0
 24 27  1  0  0  0
 27 28  1  0  0  0
 28 29  1  0  0  0
 28 35  1  0  0  0
 29 30  1  0  0  0
 30 31  1  0  0  0
 31 32  1  0  0  0
 31 35  1  0  0  0
 32 33  1  0  0  0
 33 34  1  0  0  0
 34 35  1  0  0  0
 36 42  1  0  0  0
 37 38  2  0  0  0
 37 42  1  0  0  0
 38 39  1  0  0  0
 39 40  2  0  0  0
 40 41  1  0  0  0
 41 42  2  0  0  0
  9 16  1  0  0  0
  9 17  1  0  0  0
  2  3  1  0  0  0
 23 26  1  0  0  0
M  END
> <minimizedAffinity>
-8.91916

$$$$
2F80_017_B_301


 42 45  0  0  0  0  0  0  0  0999 V2000
   17.2643   22.6414   19.1129 C   0  0  0  0  0  0  0  0  0  0  0  0
   16.5820   22.7126   20.3520 O   0  0  0  0  0  0  0  0  0  0  0  0
   15.8599   23.3570   20.2869 H   0  0  0  0  0  0  0  0  0  0  0  0
   17.8876   24.0511   18.8048 C   0  0  0  0  0  0  0  0  0  0  0  0
   19.1674   23.7727   18.0227 N   0  0  0  0  0  0  0  0  0  0  0  0
   19.1957   24.5933   16.4124 S   0  0  0  0  0  0  0  0  0  0  0  0
   17.8275   25.2429   16.1223 O   0  0  0  0  0  0  0  0  0  0  0  0
   19.6413   23.4786   15.3869 O   0  0  0  0  0  0  0  0  0  0  0  0
   23.6381   28.5315   16.4799 N   0  0  0  0  0  0  0  0  0  0  0  0
   22.6027   27.6474   16.5122 C   0  0  0  0  0  0  0  0  0  0  0  0
   22.4828   26.7694   15.4375 C   0  0  0  0  0  0  0  0  0  0  0  0
   21.4416   25.8438   15.4184 C   0  0  0  0  0  0  0  0  0  0  0  0
   20.5460   25.8300   16.4909 C   0  0  0  0  0  0  0  0  0  0  0  0
   20.6348   26.6978   17.5888 C   0  0  0  0  0  0  0  0  0  0  0  0
   21.6977   27.6278   17.5876 C   0  0  0  0  0  0  0  0  0  0  0  0
   24.2623   28.5309   15.7186 H   0  0  0  0  0  0  0  0  0  0  0  0
   23.7624   29.1712   17.2179 H   0  0  0  0  0  0  0  0  0  0  0  0
   20.4077   23.8583   18.8545 C   0  0  0  0  0  0  0  0  0  0  0  0
   20.0745   23.8961   20.3696 C   0  0  0  0  0  0  0  0  0  0  0  0
   20.5638   22.5916   20.9740 C   0  0  0  0  0  0  0  0  0  0  0  0
   20.8124   25.0795   20.9877 C   0  0  0  0  0  0  0  0  0  0  0  0
   16.3703   22.0829   17.9704 C   0  0  0  0  0  0  0  0  0  0  0  0
   15.2254   21.4417   18.5727 N   0  0  0  0  0  0  0  0  0  0  0  0
   15.0332   20.1080   18.6205 C   0  0  0  0  0  0  0  0  0  0  0  0
   15.7824   19.2565   18.0207 O   0  0  0  0  0  0  0  0  0  0  0  0
   14.5373   22.0184   18.9766 H   0  0  0  0  0  0  0  0  0  0  0  0
   13.8995   19.7677   19.4146 O   0  0  0  0  0  0  0  0  0  0  0  0
   13.6498   18.3258   19.5719 C   0  0  0  0  0  0  0  0  0  0  0  0
   12.7779   18.1293   20.8341 C   0  0  0  0  0  0  0  0  0  0  0  0
   11.4685   18.6871   20.4993 O   0  0  0  0  0  0  0  0  0  0  0  0
   11.3029   18.3417   19.1349 C   0  0  0  0  0  0  0  0  0  0  0  0
   10.6700   19.3328   18.3472 O   0  0  0  0  0  0  0  0  0  0  0  0
   11.7295   19.7160   17.4430 C   0  0  0  0  0  0  0  0  0  0  0  0
   12.5880   18.4785   17.1619 C   0  0  0  0  0  0  0  0  0  0  0  0
   12.5807   17.8936   18.5524 C   0  0  0  0  0  0  0  0  0  0  0  0
   15.7672   23.1015   16.9716 C   0  0  0  0  0  0  0  0  0  0  0  0
   16.1060   22.3100   14.5727 C   0  0  0  0  0  0  0  0  0  0  0  0
   15.6310   21.7471   13.3814 C   0  0  0  0  0  0  0  0  0  0  0  0
   14.2831   21.3614   13.2937 C   0  0  0  0  0  0  0  0  0  0  0  0
   13.4288   21.5398   14.3902 C   0  0  0  0  0  0  0  0  0  0  0  0
   13.9066   22.1038   15.5850 C   0  0  0  0  0  0  0  0  0  0  0  0
   15.2524   22.4882   15.6701 C   0  0  0  0  0  0  0  0  0  0  0  0
  9 10  1  0  0  0
 10 11  2  0  0  0
 10 15  1  0  0  0
 11 12  1  0  0  0
 12 13  2  0  0  0
 13 14  1  0  0  0
 13  6  1  0  0  0
 14 15  2  0  0  0
  6  7  2  0  0  0
  6  8  2  0  0  0
  6  5  1  0  0  0
  5 18  1  0  0  0
  5  4  1  0  0  0
 18 19  1  0  0  0
 19 20  1  0  0  0
 19 21  1  0  0  0
  4  1  1  0  0  0
  1  2  1  0  0  0
  1 22  1  0  0  0
 22 23  1  0  0  0
 22 36  1  0  0  0
 23 24  1  0  0  0
 24 25  2  0  0  0
 24 27  1  0  0  0
 27 28  1  0  0  0
 28 29  1  0  0  0
 28 35  1  0  0  0
 29 30  1  0  0  0
 30 31  1  0  0  0
 31 32  1  0  0  0
 31 35  1  0  0  0
 32 33  1  0  0  0
 33 34  1  0  0  0
 34 35  1  0  0  0
 36 42  1  0  0  0
 37 38  2  0  0  0
 37 42  1  0  0  0
 38 39  1  0  0  0
 39 40  2  0  0  0
 40 41  1  0  0  0
 41 42  2  0  0  0
  9 16  1  0  0  0
  9 17  1  0  0  0
  2  3  1  0  0  0
 23 26  1  0  0  0
M  END
> <minimizedAffinity>
-8.72814

$$$$
