4TWP_AXI_A_601


 30 33  0  0  0  0  0  0  0  0999 V2000
   58.6196   15.2859   48.7274 C   0  0  0  0  0  0  0  0  0  0  0  0
   59.1475   15.6118   49.9855 C   0  0  0  0  0  0  0  0  0  0  0  0
   58.8196   14.8312   51.1116 C   0  0  0  0  0  0  0  0  0  0  0  0
   57.7747   14.1900   48.5876 C   0  0  0  0  0  0  0  0  0  0  0  0
   57.4367   13.3942   49.7392 C   0  0  0  0  0  0  0  0  0  0  0  0
   56.6392   12.2737   49.9018 N   0  0  0  0  0  0  0  0  0  0  0  0
   56.6596   11.8996   51.2261 N   0  0  0  0  0  0  0  0  0  0  0  0
   57.4463   12.7533   51.9077 C   0  0  0  0  0  0  0  0  0  0  0  0
   57.9517   13.7139   50.9710 C   0  0  0  0  0  0  0  0  0  0  0  0
   56.1775   11.1328   51.6120 H   0  0  0  0  0  0  0  0  0  0  0  0
   57.7399   12.7019   53.3819 C   0  0  0  0  0  0  0  0  0  0  0  0
   56.7387   12.4522   54.2821 C   0  0  0  0  0  0  0  0  0  0  0  0
   57.0086   12.6380   55.7498 C   0  0  0  0  0  0  0  0  0  0  0  0
   58.2696   12.5941   56.2028 N   0  0  0  0  0  0  0  0  0  0  0  0
   58.5564   12.7544   57.5063 C   0  0  0  0  0  0  0  0  0  0  0  0
   57.5275   12.9700   58.4071 C   0  0  0  0  0  0  0  0  0  0  0  0
   56.2148   13.0203   57.9642 C   0  0  0  0  0  0  0  0  0  0  0  0
   55.9479   12.8515   56.6136 C   0  0  0  0  0  0  0  0  0  0  0  0
   59.0550   16.2841   47.3039 S   0  0  0  0  0  0  0  0  0  0  0  0
   61.4786   17.5772   46.8966 C   0  0  0  0  0  0  0  0  0  0  0  0
   62.5303   18.3994   47.2816 C   0  0  0  0  0  0  0  0  0  0  0  0
   62.5329   18.9849   48.5383 C   0  0  0  0  0  0  0  0  0  0  0  0
   61.4780   18.7487   49.4201 C   0  0  0  0  0  0  0  0  0  0  0  0
   60.4187   17.3365   47.7821 C   0  0  0  0  0  0  0  0  0  0  0  0
   60.4226   17.9213   49.0340 C   0  0  0  0  0  0  0  0  0  0  0  0
   61.3107   15.7582   45.4207 O   0  0  0  0  0  0  0  0  0  0  0  0
   61.4883   16.9545   45.5439 C   0  0  0  0  0  0  0  0  0  0  0  0
   61.7114   17.7647   44.3900 N   0  0  0  0  0  0  0  0  0  0  0  0
   61.7217   17.1537   43.0763 C   0  0  0  0  0  0  0  0  0  0  0  0
   61.8574   18.7335   44.4864 H   0  0  0  0  0  0  0  0  0  0  0  0
 26 27  2  0  0  0
 27 28  1  0  0  0
 27 20  1  0  0  0
 28 29  1  0  0  0
 20 21  1  0  0  0
 20 24  2  0  0  0
 21 22  2  0  0  0
 22 23  1  0  0  0
 23 25  2  0  0  0
 24 25  1  0  0  0
 24 19  1  0  0  0
 19  1  1  0  0  0
  1  2  1  0  0  0
  1  4  2  0  0  0
  2  3  2  0  0  0
  3  9  1  0  0  0
  4  5  1  0  0  0
  5  6  2  0  0  0
  5  9  1  0  0  0
  6  7  1  0  0  0
  7  8  1  0  0  0
  8  9  2  0  0  0
  8 11  1  0  0  0
 11 12  2  0  0  0
 12 13  1  0  0  0
 13 14  2  0  0  0
 13 18  1  0  0  0
 14 15  1  0  0  0
 15 16  2  0  0  0
 16 17  1  0  0  0
 17 18  2  0  0  0
 28 30  1  0  0  0
  7 10  1  0  0  0
M  END
> <minimizedAffinity>
-10.47442

$$$$
4TWP_AXI_A_601


 30 33  0  0  0  0  0  0  0  0999 V2000
   59.7596   16.3654   48.7300 C   0  0  0  0  0  0  0  0  0  0  0  0
   59.6281   16.3003   50.1251 C   0  0  0  0  0  0  0  0  0  0  0  0
   58.8170   15.3086   50.7114 C   0  0  0  0  0  0  0  0  0  0  0  0
   59.0932   15.4497   47.9226 C   0  0  0  0  0  0  0  0  0  0  0  0
   58.2613   14.4384   48.5218 C   0  0  0  0  0  0  0  0  0  0  0  0
   57.4944   13.4177   47.9849 N   0  0  0  0  0  0  0  0  0  0  0  0
   56.8923   12.7250   49.0104 N   0  0  0  0  0  0  0  0  0  0  0  0
   57.2548   13.2797   50.1823 C   0  0  0  0  0  0  0  0  0  0  0  0
   58.1309   14.3754   49.8870 C   0  0  0  0  0  0  0  0  0  0  0  0
   56.2941   11.9503   48.9043 H   0  0  0  0  0  0  0  0  0  0  0  0
   56.8191   12.8264   51.5486 C   0  0  0  0  0  0  0  0  0  0  0  0
   57.4497   13.2942   52.6705 C   0  0  0  0  0  0  0  0  0  0  0  0
   57.1557   12.6530   53.9986 C   0  0  0  0  0  0  0  0  0  0  0  0
   57.8598   13.0157   55.0803 N   0  0  0  0  0  0  0  0  0  0  0  0
   57.6310   12.4682   56.2865 C   0  0  0  0  0  0  0  0  0  0  0  0
   56.6452   11.5053   56.4200 C   0  0  0  0  0  0  0  0  0  0  0  0
   55.9026   11.1131   55.3171 C   0  0  0  0  0  0  0  0  0  0  0  0
   56.1602   11.6947   54.0845 C   0  0  0  0  0  0  0  0  0  0  0  0
   60.8031   17.6273   48.0015 S   0  0  0  0  0  0  0  0  0  0  0  0
   63.0761   18.8135   49.0686 C   0  0  0  0  0  0  0  0  0  0  0  0
   64.2768   18.7971   49.7673 C   0  0  0  0  0  0  0  0  0  0  0  0
   64.7593   17.6095   50.2955 C   0  0  0  0  0  0  0  0  0  0  0  0
   64.0389   16.4269   50.1257 C   0  0  0  0  0  0  0  0  0  0  0  0
   62.3517   17.6259   48.8947 C   0  0  0  0  0  0  0  0  0  0  0  0
   62.8338   16.4433   49.4223 C   0  0  0  0  0  0  0  0  0  0  0  0
   61.5048   20.1276   47.9197 O   0  0  0  0  0  0  0  0  0  0  0  0
   62.5692   20.0960   48.5064 C   0  0  0  0  0  0  0  0  0  0  0  0
   63.3380   21.2897   48.6532 N   0  0  0  0  0  0  0  0  0  0  0  0
   62.8413   22.5345   48.1026 C   0  0  0  0  0  0  0  0  0  0  0  0
   64.2013   21.2673   49.1260 H   0  0  0  0  0  0  0  0  0  0  0  0
 26 27  2  0  0  0
 27 28  1  0  0  0
 27 20  1  0  0  0
 28 29  1  0  0  0
 20 21  1  0  0  0
 20 24  2  0  0  0
 21 22  2  0  0  0
 22 23  1  0  0  0
 23 25  2  0  0  0
 24 25  1  0  0  0
 24 19  1  0  0  0
 19  1  1  0  0  0
  1  2  1  0  0  0
  1  4  2  0  0  0
  2  3  2  0  0  0
  3  9  1  0  0  0
  4  5  1  0  0  0
  5  6  2  0  0  0
  5  9  1  0  0  0
  6  7  1  0  0  0
  7  8  1  0  0  0
  8  9  2  0  0  0
  8 11  1  0  0  0
 11 12  2  0  0  0
 12 13  1  0  0  0
 13 14  2  0  0  0
 13 18  1  0  0  0
 14 15  1  0  0  0
 15 16  2  0  0  0
 16 17  1  0  0  0
 17 18  2  0  0  0
 28 30  1  0  0  0
  7 10  1  0  0  0
M  END
> <minimizedAffinity>
-10.44043

$$$$
4TWP_AXI_A_601


 30 33  0  0  0  0  0  0  0  0999 V2000
   56.7003   12.0572   53.3943 C   0  0  0  0  0  0  0  0  0  0  0  0
   57.5123   13.1801   53.6123 C   0  0  0  0  0  0  0  0  0  0  0  0
   57.9769   13.9374   52.5189 C   0  0  0  0  0  0  0  0  0  0  0  0
   56.3490   11.6908   52.0993 C   0  0  0  0  0  0  0  0  0  0  0  0
   56.8269   12.4628   50.9816 C   0  0  0  0  0  0  0  0  0  0  0  0
   56.6467   12.3407   49.6138 N   0  0  0  0  0  0  0  0  0  0  0  0
   57.3261   13.3570   48.9816 N   0  0  0  0  0  0  0  0  0  0  0  0
   57.9336   14.1186   49.9108 C   0  0  0  0  0  0  0  0  0  0  0  0
   57.6230   13.5608   51.1944 C   0  0  0  0  0  0  0  0  0  0  0  0
   57.3620   13.5031   48.0086 H   0  0  0  0  0  0  0  0  0  0  0  0
   58.7798   15.3331   49.6447 C   0  0  0  0  0  0  0  0  0  0  0  0
   59.2332   15.6016   48.3807 C   0  0  0  0  0  0  0  0  0  0  0  0
   60.2625   16.6802   48.1842 C   0  0  0  0  0  0  0  0  0  0  0  0
   60.8256   16.8476   46.9791 N   0  0  0  0  0  0  0  0  0  0  0  0
   61.7500   17.7984   46.7589 C   0  0  0  0  0  0  0  0  0  0  0  0
   62.1336   18.6274   47.7993 C   0  0  0  0  0  0  0  0  0  0  0  0
   61.5661   18.4753   49.0549 C   0  0  0  0  0  0  0  0  0  0  0  0
   60.6147   17.4858   49.2537 C   0  0  0  0  0  0  0  0  0  0  0  0
   56.1102   11.1110   54.7973 S   0  0  0  0  0  0  0  0  0  0  0  0
   56.2450   12.7239   57.0540 C   0  0  0  0  0  0  0  0  0  0  0  0
   55.7215   13.6266   57.9712 C   0  0  0  0  0  0  0  0  0  0  0  0
   54.4191   14.0821   57.8348 C   0  0  0  0  0  0  0  0  0  0  0  0
   53.6306   13.6336   56.7750 C   0  0  0  0  0  0  0  0  0  0  0  0
   55.4535   12.2700   55.9895 C   0  0  0  0  0  0  0  0  0  0  0  0
   54.1559   12.7255   55.8548 C   0  0  0  0  0  0  0  0  0  0  0  0
   58.5683   12.8864   56.7518 O   0  0  0  0  0  0  0  0  0  0  0  0
   57.6454   12.2426   57.2120 C   0  0  0  0  0  0  0  0  0  0  0  0
   57.9032   11.0198   57.9018 N   0  0  0  0  0  0  0  0  0  0  0  0
   59.2674   10.5550   58.0511 C   0  0  0  0  0  0  0  0  0  0  0  0
   57.1580   10.4950   58.2740 H   0  0  0  0  0  0  0  0  0  0  0  0
 26 27  2  0  0  0
 27 28  1  0  0  0
 27 20  1  0  0  0
 28 29  1  0  0  0
 20 21  1  0  0  0
 20 24  2  0  0  0
 21 22  2  0  0  0
 22 23  1  0  0  0
 23 25  2  0  0  0
 24 25  1  0  0  0
 24 19  1  0  0  0
 19  1  1  0  0  0
  1  2  1  0  0  0
  1  4  2  0  0  0
  2  3  2  0  0  0
  3  9  1  0  0  0
  4  5  1  0  0  0
  5  6  2  0  0  0
  5  9  1  0  0  0
  6  7  1  0  0  0
  7  8  1  0  0  0
  8  9  2  0  0  0
  8 11  1  0  0  0
 11 12  2  0  0  0
 12 13  1  0  0  0
 13 14  2  0  0  0
 13 18  1  0  0  0
 14 15  1  0  0  0
 15 16  2  0  0  0
 16 17  1  0  0  0
 17 18  2  0  0  0
 28 30  1  0  0  0
  7 10  1  0  0  0
M  END
> <minimizedAffinity>
-10.31675

$$$$
4TWP_AXI_A_601


 30 33  0  0  0  0  0  0  0  0999 V2000
   62.2150   19.1392   48.0416 C   0  0  0  0  0  0  0  0  0  0  0  0
   61.3895   18.7961   49.1226 C   0  0  0  0  0  0  0  0  0  0  0  0
   60.5961   17.6334   49.0628 C   0  0  0  0  0  0  0  0  0  0  0  0
   62.2553   18.3312   46.9102 C   0  0  0  0  0  0  0  0  0  0  0  0
   61.4416   17.1447   46.8477 C   0  0  0  0  0  0  0  0  0  0  0  0
   61.2768   16.1724   45.8753 N   0  0  0  0  0  0  0  0  0  0  0  0
   60.3714   15.2391   46.3261 N   0  0  0  0  0  0  0  0  0  0  0  0
   59.9562   15.5941   47.5566 C   0  0  0  0  0  0  0  0  0  0  0  0
   60.6322   16.8096   47.9047 C   0  0  0  0  0  0  0  0  0  0  0  0
   60.0756   14.4419   45.8298 H   0  0  0  0  0  0  0  0  0  0  0  0
   58.9660   14.8466   48.4067 C   0  0  0  0  0  0  0  0  0  0  0  0
   58.9783   14.9808   49.7695 C   0  0  0  0  0  0  0  0  0  0  0  0
   58.1423   14.0518   50.6057 C   0  0  0  0  0  0  0  0  0  0  0  0
   58.2654   14.0694   51.9406 N   0  0  0  0  0  0  0  0  0  0  0  0
   57.5386   13.2561   52.7263 C   0  0  0  0  0  0  0  0  0  0  0  0
   56.6398   12.3766   52.1474 C   0  0  0  0  0  0  0  0  0  0  0  0
   56.4931   12.3391   50.7694 C   0  0  0  0  0  0  0  0  0  0  0  0
   57.2561   13.1895   49.9829 C   0  0  0  0  0  0  0  0  0  0  0  0
   63.2250   20.6166   48.1386 S   0  0  0  0  0  0  0  0  0  0  0  0
   65.6429   21.1224   49.4073 C   0  0  0  0  0  0  0  0  0  0  0  0
   66.6187   20.8825   50.3668 C   0  0  0  0  0  0  0  0  0  0  0  0
   66.4569   19.8546   51.2831 C   0  0  0  0  0  0  0  0  0  0  0  0
   65.3124   19.0579   51.2428 C   0  0  0  0  0  0  0  0  0  0  0  0
   64.4931   20.3214   49.3636 C   0  0  0  0  0  0  0  0  0  0  0  0
   64.3333   19.2979   50.2779 C   0  0  0  0  0  0  0  0  0  0  0  0
   65.4452   23.3519   48.6961 O   0  0  0  0  0  0  0  0  0  0  0  0
   65.8291   22.2297   48.4291 C   0  0  0  0  0  0  0  0  0  0  0  0
   66.4559   21.9706   47.1731 N   0  0  0  0  0  0  0  0  0  0  0  0
   66.6329   23.0510   46.2240 C   0  0  0  0  0  0  0  0  0  0  0  0
   66.7662   21.0626   46.9528 H   0  0  0  0  0  0  0  0  0  0  0  0
 26 27  2  0  0  0
 27 28  1  0  0  0
 27 20  1  0  0  0
 28 29  1  0  0  0
 20 21  1  0  0  0
 20 24  2  0  0  0
 21 22  2  0  0  0
 22 23  1  0  0  0
 23 25  2  0  0  0
 24 25  1  0  0  0
 24 19  1  0  0  0
 19  1  1  0  0  0
  1  2  1  0  0  0
  1  4  2  0  0  0
  2  3  2  0  0  0
  3  9  1  0  0  0
  4  5  1  0  0  0
  5  6  2  0  0  0
  5  9  1  0  0  0
  6  7  1  0  0  0
  7  8  1  0  0  0
  8  9  2  0  0  0
  8 11  1  0  0  0
 11 12  2  0  0  0
 12 13  1  0  0  0
 13 14  2  0  0  0
 13 18  1  0  0  0
 14 15  1  0  0  0
 15 16  2  0  0  0
 16 17  1  0  0  0
 17 18  2  0  0  0
 28 30  1  0  0  0
  7 10  1  0  0  0
M  END
> <minimizedAffinity>
-10.04167

$$$$
4TWP_AXI_A_601


 30 33  0  0  0  0  0  0  0  0999 V2000
   64.1794   21.6986   48.6718 C   0  0  0  0  0  0  0  0  0  0  0  0
   63.0132   21.1602   48.1080 C   0  0  0  0  0  0  0  0  0  0  0  0
   62.6418   19.8309   48.3908 C   0  0  0  0  0  0  0  0  0  0  0  0
   64.9697   20.9234   49.5138 C   0  0  0  0  0  0  0  0  0  0  0  0
   64.5920   19.5635   49.8000 C   0  0  0  0  0  0  0  0  0  0  0  0
   65.1687   18.5762   50.5815 N   0  0  0  0  0  0  0  0  0  0  0  0
   64.3909   17.4428   50.5146 N   0  0  0  0  0  0  0  0  0  0  0  0
   63.3382   17.6838   49.7107 C   0  0  0  0  0  0  0  0  0  0  0  0
   63.4517   19.0357   49.2470 C   0  0  0  0  0  0  0  0  0  0  0  0
   64.5744   16.5942   50.9789 H   0  0  0  0  0  0  0  0  0  0  0  0
   62.2448   16.7098   49.3679 C   0  0  0  0  0  0  0  0  0  0  0  0
   60.9304   17.0885   49.4328 C   0  0  0  0  0  0  0  0  0  0  0  0
   59.8583   16.0405   49.3157 C   0  0  0  0  0  0  0  0  0  0  0  0
   59.3227   15.7711   48.1166 N   0  0  0  0  0  0  0  0  0  0  0  0
   58.3619   14.8430   47.9662 C   0  0  0  0  0  0  0  0  0  0  0  0
   57.9109   14.1458   49.0740 C   0  0  0  0  0  0  0  0  0  0  0  0
   58.4489   14.4050   50.3251 C   0  0  0  0  0  0  0  0  0  0  0  0
   59.4390   15.3682   50.4511 C   0  0  0  0  0  0  0  0  0  0  0  0
   64.6316   23.3944   48.3089 S   0  0  0  0  0  0  0  0  0  0  0  0
   63.2925   24.2432   46.0289 C   0  0  0  0  0  0  0  0  0  0  0  0
   62.2226   24.8213   45.3570 C   0  0  0  0  0  0  0  0  0  0  0  0
   61.1274   25.2917   46.0650 C   0  0  0  0  0  0  0  0  0  0  0  0
   61.0979   25.1857   47.4558 C   0  0  0  0  0  0  0  0  0  0  0  0
   63.2660   24.1380   47.4267 C   0  0  0  0  0  0  0  0  0  0  0  0
   62.1734   24.6068   48.1307 C   0  0  0  0  0  0  0  0  0  0  0  0
   64.5431   22.5646   44.9643 O   0  0  0  0  0  0  0  0  0  0  0  0
   64.4628   23.7420   45.2562 C   0  0  0  0  0  0  0  0  0  0  0  0
   65.4944   24.6463   44.8620 N   0  0  0  0  0  0  0  0  0  0  0  0
   66.6318   24.1531   44.1120 C   0  0  0  0  0  0  0  0  0  0  0  0
   65.4334   25.6000   45.0984 H   0  0  0  0  0  0  0  0  0  0  0  0
 26 27  2  0  0  0
 27 28  1  0  0  0
 27 20  1  0  0  0
 28 29  1  0  0  0
 20 21  1  0  0  0
 20 24  2  0  0  0
 21 22  2  0  0  0
 22 23  1  0  0  0
 23 25  2  0  0  0
 24 25  1  0  0  0
 24 19  1  0  0  0
 19  1  1  0  0  0
  1  2  1  0  0  0
  1  4  2  0  0  0
  2  3  2  0  0  0
  3  9  1  0  0  0
  4  5  1  0  0  0
  5  6  2  0  0  0
  5  9  1  0  0  0
  6  7  1  0  0  0
  7  8  1  0  0  0
  8  9  2  0  0  0
  8 11  1  0  0  0
 11 12  2  0  0  0
 12 13  1  0  0  0
 13 14  2  0  0  0
 13 18  1  0  0  0
 14 15  1  0  0  0
 15 16  2  0  0  0
 16 17  1  0  0  0
 17 18  2  0  0  0
 28 30  1  0  0  0
  7 10  1  0  0  0
M  END
> <minimizedAffinity>
-9.76391

$$$$
4TWP_AXI_A_601


 30 33  0  0  0  0  0  0  0  0999 V2000
   62.6152   19.3612   48.3245 C   0  0  0  0  0  0  0  0  0  0  0  0
   61.7941   18.9559   49.3872 C   0  0  0  0  0  0  0  0  0  0  0  0
   60.9099   17.8717   49.2215 C   0  0  0  0  0  0  0  0  0  0  0  0
   62.5614   18.6919   47.1064 C   0  0  0  0  0  0  0  0  0  0  0  0
   61.6550   17.5859   46.9359 C   0  0  0  0  0  0  0  0  0  0  0  0
   61.3881   16.7506   45.8640 N   0  0  0  0  0  0  0  0  0  0  0  0
   60.4240   15.8415   46.2356 N   0  0  0  0  0  0  0  0  0  0  0  0
   60.0709   16.0789   47.5129 C   0  0  0  0  0  0  0  0  0  0  0  0
   60.8500   17.1902   47.9752 C   0  0  0  0  0  0  0  0  0  0  0  0
   60.0530   15.1333   45.6611 H   0  0  0  0  0  0  0  0  0  0  0  0
   59.0477   15.3129   48.3055 C   0  0  0  0  0  0  0  0  0  0  0  0
   59.1871   15.1619   49.6593 C   0  0  0  0  0  0  0  0  0  0  0  0
   58.2868   14.2022   50.3871 C   0  0  0  0  0  0  0  0  0  0  0  0
   57.3956   13.4762   49.6971 N   0  0  0  0  0  0  0  0  0  0  0  0
   56.5710   12.6071   50.3069 C   0  0  0  0  0  0  0  0  0  0  0  0
   56.6398   12.4547   51.6812 C   0  0  0  0  0  0  0  0  0  0  0  0
   57.5530   13.1932   52.4178 C   0  0  0  0  0  0  0  0  0  0  0  0
   58.3915   14.0828   51.7624 C   0  0  0  0  0  0  0  0  0  0  0  0
   63.7411   20.7363   48.5559 S   0  0  0  0  0  0  0  0  0  0  0  0
   63.5830   23.2140   47.3116 C   0  0  0  0  0  0  0  0  0  0  0  0
   62.9125   24.3592   46.9004 C   0  0  0  0  0  0  0  0  0  0  0  0
   61.5655   24.5188   47.1872 C   0  0  0  0  0  0  0  0  0  0  0  0
   60.8800   23.5283   47.8908 C   0  0  0  0  0  0  0  0  0  0  0  0
   62.8965   22.2184   48.0210 C   0  0  0  0  0  0  0  0  0  0  0  0
   61.5540   22.3789   48.3055 C   0  0  0  0  0  0  0  0  0  0  0  0
   65.8722   23.4332   47.7879 O   0  0  0  0  0  0  0  0  0  0  0  0
   65.0299   23.0551   46.9970 C   0  0  0  0  0  0  0  0  0  0  0  0
   65.4276   22.4615   45.7613 N   0  0  0  0  0  0  0  0  0  0  0  0
   66.8366   22.3110   45.4591 C   0  0  0  0  0  0  0  0  0  0  0  0
   64.7481   22.1560   45.1178 H   0  0  0  0  0  0  0  0  0  0  0  0
 26 27  2  0  0  0
 27 28  1  0  0  0
 27 20  1  0  0  0
 28 29  1  0  0  0
 20 21  1  0  0  0
 20 24  2  0  0  0
 21 22  2  0  0  0
 22 23  1  0  0  0
 23 25  2  0  0  0
 24 25  1  0  0  0
 24 19  1  0  0  0
 19  1  1  0  0  0
  1  2  1  0  0  0
  1  4  2  0  0  0
  2  3  2  0  0  0
  3  9  1  0  0  0
  4  5  1  0  0  0
  5  6  2  0  0  0
  5  9  1  0  0  0
  6  7  1  0  0  0
  7  8  1  0  0  0
  8  9  2  0  0  0
  8 11  1  0  0  0
 11 12  2  0  0  0
 12 13  1  0  0  0
 13 14  2  0  0  0
 13 18  1  0  0  0
 14 15  1  0  0  0
 15 16  2  0  0  0
 16 17  1  0  0  0
 17 18  2  0  0  0
 28 30  1  0  0  0
  7 10  1  0  0  0
M  END
> <minimizedAffinity>
-9.74476

$$$$
4TWP_AXI_A_601


 30 33  0  0  0  0  0  0  0  0999 V2000
   56.4603   12.2417   54.0557 C   0  0  0  0  0  0  0  0  0  0  0  0
   57.2289   13.4090   54.1745 C   0  0  0  0  0  0  0  0  0  0  0  0
   57.7488   14.0314   53.0224 C   0  0  0  0  0  0  0  0  0  0  0  0
   56.2064   11.6978   52.8010 C   0  0  0  0  0  0  0  0  0  0  0  0
   56.7408   12.3320   51.6236 C   0  0  0  0  0  0  0  0  0  0  0  0
   56.6568   12.0263   50.2755 N   0  0  0  0  0  0  0  0  0  0  0  0
   57.3534   12.9725   49.5589 N   0  0  0  0  0  0  0  0  0  0  0  0
   57.8784   13.8683   50.4159 C   0  0  0  0  0  0  0  0  0  0  0  0
   57.4946   13.4735   51.7396 C   0  0  0  0  0  0  0  0  0  0  0  0
   57.4518   12.9911   48.5795 H   0  0  0  0  0  0  0  0  0  0  0  0
   58.7119   15.0643   50.0459 C   0  0  0  0  0  0  0  0  0  0  0  0
   59.0166   15.3213   48.7358 C   0  0  0  0  0  0  0  0  0  0  0  0
   60.0373   16.3775   48.4135 C   0  0  0  0  0  0  0  0  0  0  0  0
   60.4859   16.5044   47.1565 N   0  0  0  0  0  0  0  0  0  0  0  0
   61.3982   17.4340   46.8241 C   0  0  0  0  0  0  0  0  0  0  0  0
   61.8900   18.2834   47.8005 C   0  0  0  0  0  0  0  0  0  0  0  0
   61.4421   18.1732   49.1078 C   0  0  0  0  0  0  0  0  0  0  0  0
   60.5003   17.2047   49.4225 C   0  0  0  0  0  0  0  0  0  0  0  0
   55.7987   11.4686   55.5310 S   0  0  0  0  0  0  0  0  0  0  0  0
   56.3191   12.9099   57.8471 C   0  0  0  0  0  0  0  0  0  0  0  0
   57.1158   13.3032   58.9152 C   0  0  0  0  0  0  0  0  0  0  0  0
   58.3938   12.7855   59.0588 C   0  0  0  0  0  0  0  0  0  0  0  0
   58.8831   11.8675   58.1293 C   0  0  0  0  0  0  0  0  0  0  0  0
   56.8098   11.9894   56.9104 C   0  0  0  0  0  0  0  0  0  0  0  0
   58.0835   11.4739   57.0554 C   0  0  0  0  0  0  0  0  0  0  0  0
   54.7650   14.4734   57.0374 O   0  0  0  0  0  0  0  0  0  0  0  0
   54.9482   13.4738   57.7046 C   0  0  0  0  0  0  0  0  0  0  0  0
   53.8478   12.8407   58.3572 N   0  0  0  0  0  0  0  0  0  0  0  0
   52.5162   13.3944   58.2170 C   0  0  0  0  0  0  0  0  0  0  0  0
   53.9929   12.0321   58.8998 H   0  0  0  0  0  0  0  0  0  0  0  0
 26 27  2  0  0  0
 27 28  1  0  0  0
 27 20  1  0  0  0
 28 29  1  0  0  0
 20 21  1  0  0  0
 20 24  2  0  0  0
 21 22  2  0  0  0
 22 23  1  0  0  0
 23 25  2  0  0  0
 24 25  1  0  0  0
 24 19  1  0  0  0
 19  1  1  0  0  0
  1  2  1  0  0  0
  1  4  2  0  0  0
  2  3  2  0  0  0
  3  9  1  0  0  0
  4  5  1  0  0  0
  5  6  2  0  0  0
  5  9  1  0  0  0
  6  7  1  0  0  0
  7  8  1  0  0  0
  8  9  2  0  0  0
  8 11  1  0  0  0
 11 12  2  0  0  0
 12 13  1  0  0  0
 13 14  2  0  0  0
 13 18  1  0  0  0
 14 15  1  0  0  0
 15 16  2  0  0  0
 16 17  1  0  0  0
 17 18  2  0  0  0
 28 30  1  0  0  0
  7 10  1  0  0  0
M  END
> <minimizedAffinity>
-9.74183

$$$$
4TWP_AXI_A_601


 30 33  0  0  0  0  0  0  0  0999 V2000
   59.6343   15.6541   48.4464 C   0  0  0  0  0  0  0  0  0  0  0  0
   59.9029   15.9620   49.7883 C   0  0  0  0  0  0  0  0  0  0  0  0
   59.2150   15.2893   50.8175 C   0  0  0  0  0  0  0  0  0  0  0  0
   58.6916   14.6821   48.1285 C   0  0  0  0  0  0  0  0  0  0  0  0
   57.9860   13.9971   49.1805 C   0  0  0  0  0  0  0  0  0  0  0  0
   57.0162   13.0084   49.1680 N   0  0  0  0  0  0  0  0  0  0  0  0
   56.6781   12.6983   50.4655 N   0  0  0  0  0  0  0  0  0  0  0  0
   57.4053   13.4647   51.3000 C   0  0  0  0  0  0  0  0  0  0  0  0
   58.2473   14.2994   50.4938 C   0  0  0  0  0  0  0  0  0  0  0  0
   56.0130   12.0259   50.7389 H   0  0  0  0  0  0  0  0  0  0  0  0
   57.3435   13.4425   52.8026 C   0  0  0  0  0  0  0  0  0  0  0  0
   56.8259   12.3593   53.4615 C   0  0  0  0  0  0  0  0  0  0  0  0
   56.5597   12.4574   54.9383 C   0  0  0  0  0  0  0  0  0  0  0  0
   57.5809   12.6538   55.7844 N   0  0  0  0  0  0  0  0  0  0  0  0
   57.3887   12.7469   57.1116 C   0  0  0  0  0  0  0  0  0  0  0  0
   56.1064   12.6374   57.6221 C   0  0  0  0  0  0  0  0  0  0  0  0
   55.0332   12.4347   56.7683 C   0  0  0  0  0  0  0  0  0  0  0  0
   55.2607   12.3424   55.4032 C   0  0  0  0  0  0  0  0  0  0  0  0
   60.5255   16.5128   47.1501 S   0  0  0  0  0  0  0  0  0  0  0  0
   62.7228   17.3350   48.6361 C   0  0  0  0  0  0  0  0  0  0  0  0
   63.5301   18.2921   49.2381 C   0  0  0  0  0  0  0  0  0  0  0  0
   63.2050   19.6366   49.1441 C   0  0  0  0  0  0  0  0  0  0  0  0
   62.0647   20.0313   48.4441 C   0  0  0  0  0  0  0  0  0  0  0  0
   61.5751   17.7292   47.9342 C   0  0  0  0  0  0  0  0  0  0  0  0
   61.2530   19.0697   47.8410 C   0  0  0  0  0  0  0  0  0  0  0  0
   63.1355   15.2005   47.7477 O   0  0  0  0  0  0  0  0  0  0  0  0
   63.0834   15.8941   48.7448 C   0  0  0  0  0  0  0  0  0  0  0  0
   63.3639   15.3261   50.0239 N   0  0  0  0  0  0  0  0  0  0  0  0
   63.7123   13.9233   50.1243 C   0  0  0  0  0  0  0  0  0  0  0  0
   63.3207   15.8845   50.8335 H   0  0  0  0  0  0  0  0  0  0  0  0
 26 27  2  0  0  0
 27 28  1  0  0  0
 27 20  1  0  0  0
 28 29  1  0  0  0
 20 21  1  0  0  0
 20 24  2  0  0  0
 21 22  2  0  0  0
 22 23  1  0  0  0
 23 25  2  0  0  0
 24 25  1  0  0  0
 24 19  1  0  0  0
 19  1  1  0  0  0
  1  2  1  0  0  0
  1  4  2  0  0  0
  2  3  2  0  0  0
  3  9  1  0  0  0
  4  5  1  0  0  0
  5  6  2  0  0  0
  5  9  1  0  0  0
  6  7  1  0  0  0
  7  8  1  0  0  0
  8  9  2  0  0  0
  8 11  1  0  0  0
 11 12  2  0  0  0
 12 13  1  0  0  0
 13 14  2  0  0  0
 13 18  1  0  0  0
 14 15  1  0  0  0
 15 16  2  0  0  0
 16 17  1  0  0  0
 17 18  2  0  0  0
 28 30  1  0  0  0
  7 10  1  0  0  0
M  END
> <minimizedAffinity>
-9.69507

$$$$
4TWP_AXI_A_601


 30 33  0  0  0  0  0  0  0  0999 V2000
   64.7515   19.6758   49.8824 C   0  0  0  0  0  0  0  0  0  0  0  0
   64.5381   18.4987   50.6150 C   0  0  0  0  0  0  0  0  0  0  0  0
   63.3971   17.7104   50.3664 C   0  0  0  0  0  0  0  0  0  0  0  0
   63.8400   20.0657   48.9069 C   0  0  0  0  0  0  0  0  0  0  0  0
   62.6719   19.2619   48.6554 C   0  0  0  0  0  0  0  0  0  0  0  0
   61.6160   19.3960   47.7694 N   0  0  0  0  0  0  0  0  0  0  0  0
   60.7560   18.3345   47.9358 N   0  0  0  0  0  0  0  0  0  0  0  0
   61.2368   17.5323   48.9042 C   0  0  0  0  0  0  0  0  0  0  0  0
   62.4618   18.1108   49.3733 C   0  0  0  0  0  0  0  0  0  0  0  0
   59.9249   18.1860   47.4293 H   0  0  0  0  0  0  0  0  0  0  0  0
   60.6016   16.2613   49.3973 C   0  0  0  0  0  0  0  0  0  0  0  0
   59.2937   15.9789   49.1063 C   0  0  0  0  0  0  0  0  0  0  0  0
   58.6193   14.8285   49.8013 C   0  0  0  0  0  0  0  0  0  0  0  0
   57.7435   14.0687   49.1284 N   0  0  0  0  0  0  0  0  0  0  0  0
   57.1173   13.0312   49.7103 C   0  0  0  0  0  0  0  0  0  0  0  0
   57.3798   12.7364   51.0373 C   0  0  0  0  0  0  0  0  0  0  0  0
   58.2818   13.5063   51.7553 C   0  0  0  0  0  0  0  0  0  0  0  0
   58.9132   14.5710   51.1295 C   0  0  0  0  0  0  0  0  0  0  0  0
   66.2132   20.6613   50.2050 S   0  0  0  0  0  0  0  0  0  0  0  0
   66.1106   21.7735   52.7476 C   0  0  0  0  0  0  0  0  0  0  0  0
   65.7564   22.7581   53.6616 C   0  0  0  0  0  0  0  0  0  0  0  0
   65.0631   23.8825   53.2407 C   0  0  0  0  0  0  0  0  0  0  0  0
   64.7190   24.0273   51.8965 C   0  0  0  0  0  0  0  0  0  0  0  0
   65.7636   21.9158   51.3967 C   0  0  0  0  0  0  0  0  0  0  0  0
   65.0732   23.0374   50.9789 C   0  0  0  0  0  0  0  0  0  0  0  0
   68.0706   20.5762   53.2376 O   0  0  0  0  0  0  0  0  0  0  0  0
   66.8552   20.5707   53.2130 C   0  0  0  0  0  0  0  0  0  0  0  0
   66.1390   19.4073   53.6266 N   0  0  0  0  0  0  0  0  0  0  0  0
   66.8682   18.2390   54.0767 C   0  0  0  0  0  0  0  0  0  0  0  0
   65.1548   19.3988   53.6061 H   0  0  0  0  0  0  0  0  0  0  0  0
 26 27  2  0  0  0
 27 28  1  0  0  0
 27 20  1  0  0  0
 28 29  1  0  0  0
 20 21  1  0  0  0
 20 24  2  0  0  0
 21 22  2  0  0  0
 22 23  1  0  0  0
 23 25  2  0  0  0
 24 25  1  0  0  0
 24 19  1  0  0  0
 19  1  1  0  0  0
  1  2  1  0  0  0
  1  4  2  0  0  0
  2  3  2  0  0  0
  3  9  1  0  0  0
  4  5  1  0  0  0
  5  6  2  0  0  0
  5  9  1  0  0  0
  6  7  1  0  0  0
  7  8  1  0  0  0
  8  9  2  0  0  0
  8 11  1  0  0  0
 11 12  2  0  0  0
 12 13  1  0  0  0
 13 14  2  0  0  0
 13 18  1  0  0  0
 14 15  1  0  0  0
 15 16  2  0  0  0
 16 17  1  0  0  0
 17 18  2  0  0  0
 28 30  1  0  0  0
  7 10  1  0  0  0
M  END
> <minimizedAffinity>
-9.58228

$$$$
4TWP_AXI_A_601


 30 33  0  0  0  0  0  0  0  0999 V2000
   63.4285   18.2083   49.1986 C   0  0  0  0  0  0  0  0  0  0  0  0
   63.8121   17.0179   49.8338 C   0  0  0  0  0  0  0  0  0  0  0  0
   64.6059   17.0632   50.9969 C   0  0  0  0  0  0  0  0  0  0  0  0
   63.8274   19.4358   49.7169 C   0  0  0  0  0  0  0  0  0  0  0  0
   64.6418   19.4820   50.9037 C   0  0  0  0  0  0  0  0  0  0  0  0
   65.1781   20.5315   51.6310 N   0  0  0  0  0  0  0  0  0  0  0  0
   65.8832   20.0214   52.6972 N   0  0  0  0  0  0  0  0  0  0  0  0
   65.8102   18.6775   52.6645 C   0  0  0  0  0  0  0  0  0  0  0  0
   65.0189   18.3172   51.5246 C   0  0  0  0  0  0  0  0  0  0  0  0
   66.3626   20.5526   53.3734 H   0  0  0  0  0  0  0  0  0  0  0  0
   66.4430   17.7324   53.6486 C   0  0  0  0  0  0  0  0  0  0  0  0
   65.7233   17.2459   54.7072 C   0  0  0  0  0  0  0  0  0  0  0  0
   66.4380   16.4976   55.7982 C   0  0  0  0  0  0  0  0  0  0  0  0
   66.1056   15.2248   56.0568 N   0  0  0  0  0  0  0  0  0  0  0  0
   66.7178   14.5187   57.0230 C   0  0  0  0  0  0  0  0  0  0  0  0
   67.7165   15.1163   57.7727 C   0  0  0  0  0  0  0  0  0  0  0  0
   68.0795   16.4311   57.5249 C   0  0  0  0  0  0  0  0  0  0  0  0
   67.4308   17.1361   56.5218 C   0  0  0  0  0  0  0  0  0  0  0  0
   62.4105   18.1323   47.7255 S   0  0  0  0  0  0  0  0  0  0  0  0
   60.3800   16.3239   47.1609 C   0  0  0  0  0  0  0  0  0  0  0  0
   59.2563   15.5738   47.4847 C   0  0  0  0  0  0  0  0  0  0  0  0
   58.7112   15.6495   48.7572 C   0  0  0  0  0  0  0  0  0  0  0  0
   59.2906   16.4808   49.7161 C   0  0  0  0  0  0  0  0  0  0  0  0
   60.9625   17.1618   48.1222 C   0  0  0  0  0  0  0  0  0  0  0  0
   60.4182   17.2356   49.3901 C   0  0  0  0  0  0  0  0  0  0  0  0
   61.2459   15.1504   45.3201 O   0  0  0  0  0  0  0  0  0  0  0  0
   60.9556   16.2332   45.7904 C   0  0  0  0  0  0  0  0  0  0  0  0
   61.1708   17.4218   45.0297 N   0  0  0  0  0  0  0  0  0  0  0  0
   61.7328   17.3282   43.6975 C   0  0  0  0  0  0  0  0  0  0  0  0
   60.9386   18.3004   45.4083 H   0  0  0  0  0  0  0  0  0  0  0  0
 26 27  2  0  0  0
 27 28  1  0  0  0
 27 20  1  0  0  0
 28 29  1  0  0  0
 20 21  1  0  0  0
 20 24  2  0  0  0
 21 22  2  0  0  0
 22 23  1  0  0  0
 23 25  2  0  0  0
 24 25  1  0  0  0
 24 19  1  0  0  0
 19  1  1  0  0  0
  1  2  1  0  0  0
  1  4  2  0  0  0
  2  3  2  0  0  0
  3  9  1  0  0  0
  4  5  1  0  0  0
  5  6  2  0  0  0
  5  9  1  0  0  0
  6  7  1  0  0  0
  7  8  1  0  0  0
  8  9  2  0  0  0
  8 11  1  0  0  0
 11 12  2  0  0  0
 12 13  1  0  0  0
 13 14  2  0  0  0
 13 18  1  0  0  0
 14 15  1  0  0  0
 15 16  2  0  0  0
 16 17  1  0  0  0
 17 18  2  0  0  0
 28 30  1  0  0  0
  7 10  1  0  0  0
M  END
> <minimizedAffinity>
-9.53246

$$$$
