6ELP_BA8_A_301


 30 33  0  0  0  0  0  0  0  0999 V2000
    0.9426   33.1362   25.5873 C   0  0  0  0  0  0  0  0  0  0  0  0
   -0.1138   33.1311   26.5151 C   0  0  0  0  0  0  0  0  0  0  0  0
   -1.2581   33.9065   26.2883 C   0  0  0  0  0  0  0  0  0  0  0  0
   -1.3450   34.7229   25.1570 C   0  0  0  0  0  0  0  0  0  0  0  0
   -0.2969   34.7351   24.2118 C   0  0  0  0  0  0  0  0  0  0  0  0
    0.8359   33.9305   24.4518 C   0  0  0  0  0  0  0  0  0  0  0  0
   -0.0103   32.4247   27.6719 O   0  0  0  0  0  0  0  0  0  0  0  0
   -2.4814   35.4295   24.9596 O   0  0  0  0  0  0  0  0  0  0  0  0
    0.7502   31.9022   27.8353 H   0  0  0  0  0  0  0  0  0  0  0  0
   -2.5639   35.9838   24.2086 H   0  0  0  0  0  0  0  0  0  0  0  0
   -0.2752   35.6232   23.0160 C   0  0  0  0  0  0  0  0  0  0  0  0
   -0.8754   35.4499   21.7887 C   0  0  0  0  0  0  0  0  0  0  0  0
   -0.5542   36.5646   21.0068 C   0  0  0  0  0  0  0  0  0  0  0  0
    0.1984   37.3741   21.7051 N   0  0  0  0  0  0  0  0  0  0  0  0
    0.3668   36.8409   22.9946 N   0  0  0  0  0  0  0  0  0  0  0  0
    1.0646   37.4250   24.0890 C   0  0  0  0  0  0  0  0  0  0  0  0
    2.4317   37.1897   24.2723 C   0  0  0  0  0  0  0  0  0  0  0  0
    3.1221   37.7077   25.3789 C   0  0  0  0  0  0  0  0  0  0  0  0
    2.4167   38.4396   26.3303 C   0  0  0  0  0  0  0  0  0  0  0  0
    1.0448   38.6641   26.1576 C   0  0  0  0  0  0  0  0  0  0  0  0
    0.3553   38.1273   25.0773 C   0  0  0  0  0  0  0  0  0  0  0  0
    3.2682   36.2516   23.0833 Cl  0  0  0  0  0  0  0  0  0  0  0  0
    2.1633   32.2381   25.7829 C   0  0  0  0  0  0  0  0  0  0  0  0
    3.4245   32.9393   25.2647 C   0  0  0  0  0  0  0  0  0  0  0  0
    5.9498   30.1398   24.8486 C   0  0  0  0  0  0  0  0  0  0  0  0
    7.0381   32.1348   25.6614 C   0  0  0  0  0  0  0  0  0  0  0  0
    5.8575   32.7595   25.7015 N   0  0  0  0  0  0  0  0  0  0  0  0
    4.7329   30.8438   24.8808 C   0  0  0  0  0  0  0  0  0  0  0  0
    7.1192   30.8079   25.2292 C   0  0  0  0  0  0  0  0  0  0  0  0
    4.7211   32.1614   25.3432 C   0  0  0  0  0  0  0  0  0  0  0  0
 13 14  2  0  0  0
 13 12  1  0  0  0
 14 15  1  0  0  0
 12 11  2  0  0  0
 11 15  1  0  0  0
 11  5  1  0  0  0
 15 16  1  0  0  0
 22 17  1  0  0  0
 16 17  2  0  0  0
 16 21  1  0  0  0
  5  6  2  0  0  0
  5  4  1  0  0  0
 17 18  1  0  0  0
  8  4  1  0  0  0
  6  1  1  0  0  0
  4  3  2  0  0  0
 28 25  2  0  0  0
 28 30  1  0  0  0
 24 30  1  0  0  0
 24 23  1  0  0  0
 21 20  2  0  0  0
 25 29  1  0  0  0
 18 19  2  0  0  0
 30 27  2  0  0  0
 29 26  2  0  0  0
  1 23  1  0  0  0
  1  2  2  0  0  0
 27 26  1  0  0  0
  3  2  1  0  0  0
 20 19  1  0  0  0
  2  7  1  0  0  0
  7  9  1  0  0  0
  8 10  1  0  0  0
M  END
> <minimizedAffinity>
-10.33823

$$$$
6ELP_BA8_A_301


 30 33  0  0  0  0  0  0  0  0999 V2000
    5.6021   36.1011   27.1972 C   0  0  0  0  0  0  0  0  0  0  0  0
    5.0323   36.8990   28.2050 C   0  0  0  0  0  0  0  0  0  0  0  0
    4.2126   37.9840   27.8692 C   0  0  0  0  0  0  0  0  0  0  0  0
    3.9840   38.3081   26.5289 C   0  0  0  0  0  0  0  0  0  0  0  0
    4.5425   37.5140   25.5044 C   0  0  0  0  0  0  0  0  0  0  0  0
    5.3475   36.4147   25.8674 C   0  0  0  0  0  0  0  0  0  0  0  0
    5.3213   36.6661   29.5127 O   0  0  0  0  0  0  0  0  0  0  0  0
    3.1594   39.3432   26.2491 O   0  0  0  0  0  0  0  0  0  0  0  0
    5.8684   35.9434   29.7501 H   0  0  0  0  0  0  0  0  0  0  0  0
    2.9903   39.5799   25.3584 H   0  0  0  0  0  0  0  0  0  0  0  0
    4.4075   37.8249   24.0538 C   0  0  0  0  0  0  0  0  0  0  0  0
    5.2678   38.5087   23.2236 C   0  0  0  0  0  0  0  0  0  0  0  0
    4.6873   38.5328   21.9510 C   0  0  0  0  0  0  0  0  0  0  0  0
    3.5405   37.9063   21.9922 N   0  0  0  0  0  0  0  0  0  0  0  0
    3.3412   37.4060   23.2904 N   0  0  0  0  0  0  0  0  0  0  0  0
    2.2530   36.6157   23.7564 C   0  0  0  0  0  0  0  0  0  0  0  0
    1.0159   37.2023   24.0451 C   0  0  0  0  0  0  0  0  0  0  0  0
   -0.0490   36.4488   24.5627 C   0  0  0  0  0  0  0  0  0  0  0  0
    0.1492   35.0963   24.8271 C   0  0  0  0  0  0  0  0  0  0  0  0
    1.3913   34.5093   24.5535 C   0  0  0  0  0  0  0  0  0  0  0  0
    2.4543   35.2609   24.0681 C   0  0  0  0  0  0  0  0  0  0  0  0
    0.8168   38.8917   23.7297 Cl  0  0  0  0  0  0  0  0  0  0  0  0
    6.4357   34.8696   27.5486 C   0  0  0  0  0  0  0  0  0  0  0  0
    7.0417   34.2609   26.2784 C   0  0  0  0  0  0  0  0  0  0  0  0
    4.7532   31.4557   25.1467 C   0  0  0  0  0  0  0  0  0  0  0  0
    7.0456   30.7017   25.1855 C   0  0  0  0  0  0  0  0  0  0  0  0
    7.4270   31.8937   25.6537 N   0  0  0  0  0  0  0  0  0  0  0  0
    5.2021   32.7036   25.6143 C   0  0  0  0  0  0  0  0  0  0  0  0
    5.6977   30.4496   24.9138 C   0  0  0  0  0  0  0  0  0  0  0  0
    6.5606   32.8804   25.8845 C   0  0  0  0  0  0  0  0  0  0  0  0
 13 14  2  0  0  0
 13 12  1  0  0  0
 14 15  1  0  0  0
 12 11  2  0  0  0
 11 15  1  0  0  0
 11  5  1  0  0  0
 15 16  1  0  0  0
 22 17  1  0  0  0
 16 17  2  0  0  0
 16 21  1  0  0  0
  5  6  2  0  0  0
  5  4  1  0  0  0
 17 18  1  0  0  0
  8  4  1  0  0  0
  6  1  1  0  0  0
  4  3  2  0  0  0
 28 25  2  0  0  0
 28 30  1  0  0  0
 24 30  1  0  0  0
 24 23  1  0  0  0
 21 20  2  0  0  0
 25 29  1  0  0  0
 18 19  2  0  0  0
 30 27  2  0  0  0
 29 26  2  0  0  0
  1 23  1  0  0  0
  1  2  2  0  0  0
 27 26  1  0  0  0
  3  2  1  0  0  0
 20 19  1  0  0  0
  2  7  1  0  0  0
  7  9  1  0  0  0
  8 10  1  0  0  0
M  END
> <minimizedAffinity>
-9.04257

$$$$
6ELP_BA8_A_301


 30 33  0  0  0  0  0  0  0  0999 V2000
    3.4532   36.9424   25.5850 C   0  0  0  0  0  0  0  0  0  0  0  0
    2.9746   38.0061   26.3700 C   0  0  0  0  0  0  0  0  0  0  0  0
    1.6889   38.5195   26.1573 C   0  0  0  0  0  0  0  0  0  0  0  0
    0.8832   38.0056   25.1373 C   0  0  0  0  0  0  0  0  0  0  0  0
    1.3450   36.9333   24.3441 C   0  0  0  0  0  0  0  0  0  0  0  0
    2.6349   36.4199   24.5907 C   0  0  0  0  0  0  0  0  0  0  0  0
    3.7761   38.5899   27.3000 O   0  0  0  0  0  0  0  0  0  0  0  0
   -0.3639   38.5076   24.9880 O   0  0  0  0  0  0  0  0  0  0  0  0
    4.6383   38.2557   27.4516 H   0  0  0  0  0  0  0  0  0  0  0  0
   -0.9232   38.1795   24.3116 H   0  0  0  0  0  0  0  0  0  0  0  0
    0.5830   36.3701   23.1946 C   0  0  0  0  0  0  0  0  0  0  0  0
    0.4440   36.8603   21.9150 C   0  0  0  0  0  0  0  0  0  0  0  0
   -0.3712   35.9662   21.2128 C   0  0  0  0  0  0  0  0  0  0  0  0
   -0.7162   34.9873   22.0079 N   0  0  0  0  0  0  0  0  0  0  0  0
   -0.1029   35.1781   23.2580 N   0  0  0  0  0  0  0  0  0  0  0  0
   -0.1635   34.3206   24.3924 C   0  0  0  0  0  0  0  0  0  0  0  0
   -1.2869   34.3173   25.2266 C   0  0  0  0  0  0  0  0  0  0  0  0
   -1.3385   33.5231   26.3826 C   0  0  0  0  0  0  0  0  0  0  0  0
   -0.2291   32.7526   26.7200 C   0  0  0  0  0  0  0  0  0  0  0  0
    0.9030   32.7653   25.8952 C   0  0  0  0  0  0  0  0  0  0  0  0
    0.9654   33.5732   24.7664 C   0  0  0  0  0  0  0  0  0  0  0  0
   -2.6349   35.3098   24.7893 Cl  0  0  0  0  0  0  0  0  0  0  0  0
    4.8232   36.3219   25.8553 C   0  0  0  0  0  0  0  0  0  0  0  0
    4.6705   35.0468   26.6931 C   0  0  0  0  0  0  0  0  0  0  0  0
    7.0718   32.2609   25.7660 C   0  0  0  0  0  0  0  0  0  0  0  0
    4.8147   31.6560   25.1621 C   0  0  0  0  0  0  0  0  0  0  0  0
    4.3846   32.8483   25.5854 N   0  0  0  0  0  0  0  0  0  0  0  0
    6.5719   33.4927   26.2244 C   0  0  0  0  0  0  0  0  0  0  0  0
    6.1705   31.3258   25.2446 C   0  0  0  0  0  0  0  0  0  0  0  0
    5.2087   33.7652   26.0929 C   0  0  0  0  0  0  0  0  0  0  0  0
 13 14  2  0  0  0
 13 12  1  0  0  0
 14 15  1  0  0  0
 12 11  2  0  0  0
 11 15  1  0  0  0
 11  5  1  0  0  0
 15 16  1  0  0  0
 22 17  1  0  0  0
 16 17  2  0  0  0
 16 21  1  0  0  0
  5  6  2  0  0  0
  5  4  1  0  0  0
 17 18  1  0  0  0
  8  4  1  0  0  0
  6  1  1  0  0  0
  4  3  2  0  0  0
 28 25  2  0  0  0
 28 30  1  0  0  0
 24 30  1  0  0  0
 24 23  1  0  0  0
 21 20  2  0  0  0
 25 29  1  0  0  0
 18 19  2  0  0  0
 30 27  2  0  0  0
 29 26  2  0  0  0
  1 23  1  0  0  0
  1  2  2  0  0  0
 27 26  1  0  0  0
  3  2  1  0  0  0
 20 19  1  0  0  0
  2  7  1  0  0  0
  7  9  1  0  0  0
  8 10  1  0  0  0
M  END
> <minimizedAffinity>
-8.99267

$$$$
6ELP_BA8_A_301


 30 33  0  0  0  0  0  0  0  0999 V2000
    3.3506   35.9754   25.6810 C   0  0  0  0  0  0  0  0  0  0  0  0
    3.2956   37.1979   26.3732 C   0  0  0  0  0  0  0  0  0  0  0  0
    2.3107   38.1437   26.0612 C   0  0  0  0  0  0  0  0  0  0  0  0
    1.3966   37.8982   25.0326 C   0  0  0  0  0  0  0  0  0  0  0  0
    1.4330   36.6735   24.3319 C   0  0  0  0  0  0  0  0  0  0  0  0
    2.4209   35.7287   24.6778 C   0  0  0  0  0  0  0  0  0  0  0  0
    4.2349   37.5025   27.3075 O   0  0  0  0  0  0  0  0  0  0  0  0
    0.4413   38.8236   24.7866 O   0  0  0  0  0  0  0  0  0  0  0  0
    4.8990   36.8783   27.5250 H   0  0  0  0  0  0  0  0  0  0  0  0
   -0.1830   38.6820   24.1024 H   0  0  0  0  0  0  0  0  0  0  0  0
    0.5439   36.3560   23.1795 C   0  0  0  0  0  0  0  0  0  0  0  0
   -0.5643   35.5398   23.1307 C   0  0  0  0  0  0  0  0  0  0  0  0
   -1.0489   35.5734   21.8187 C   0  0  0  0  0  0  0  0  0  0  0  0
   -0.2876   36.3582   21.1018 N   0  0  0  0  0  0  0  0  0  0  0  0
    0.7071   36.9078   21.9288 N   0  0  0  0  0  0  0  0  0  0  0  0
    1.7069   37.8547   21.5690 C   0  0  0  0  0  0  0  0  0  0  0  0
    1.3810   39.2029   21.3843 C   0  0  0  0  0  0  0  0  0  0  0  0
    2.3416   40.1387   20.9706 C   0  0  0  0  0  0  0  0  0  0  0  0
    3.6363   39.7015   20.7042 C   0  0  0  0  0  0  0  0  0  0  0  0
    3.9622   38.3497   20.8734 C   0  0  0  0  0  0  0  0  0  0  0  0
    3.0046   37.4180   21.2552 C   0  0  0  0  0  0  0  0  0  0  0  0
   -0.2453   39.7029   21.6980 Cl  0  0  0  0  0  0  0  0  0  0  0  0
    4.3709   34.9033   26.0614 C   0  0  0  0  0  0  0  0  0  0  0  0
    3.8711   33.5199   25.6283 C   0  0  0  0  0  0  0  0  0  0  0  0
    5.4859   30.1974   24.7680 C   0  0  0  0  0  0  0  0  0  0  0  0
    7.1508   31.7593   25.5513 C   0  0  0  0  0  0  0  0  0  0  0  0
    6.1945   32.6681   25.7640 N   0  0  0  0  0  0  0  0  0  0  0  0
    4.5157   31.1926   24.9814 C   0  0  0  0  0  0  0  0  0  0  0  0
    6.8247   30.4988   25.0425 C   0  0  0  0  0  0  0  0  0  0  0  0
    4.9085   32.4234   25.5113 C   0  0  0  0  0  0  0  0  0  0  0  0
 13 14  2  0  0  0
 13 12  1  0  0  0
 14 15  1  0  0  0
 12 11  2  0  0  0
 11 15  1  0  0  0
 11  5  1  0  0  0
 15 16  1  0  0  0
 22 17  1  0  0  0
 16 17  2  0  0  0
 16 21  1  0  0  0
  5  6  2  0  0  0
  5  4  1  0  0  0
 17 18  1  0  0  0
  8  4  1  0  0  0
  6  1  1  0  0  0
  4  3  2  0  0  0
 28 25  2  0  0  0
 28 30  1  0  0  0
 24 30  1  0  0  0
 24 23  1  0  0  0
 21 20  2  0  0  0
 25 29  1  0  0  0
 18 19  2  0  0  0
 30 27  2  0  0  0
 29 26  2  0  0  0
  1 23  1  0  0  0
  1  2  2  0  0  0
 27 26  1  0  0  0
  3  2  1  0  0  0
 20 19  1  0  0  0
  2  7  1  0  0  0
  7  9  1  0  0  0
  8 10  1  0  0  0
M  END
> <minimizedAffinity>
-8.91114

$$$$
6ELP_BA8_A_301


 30 33  0  0  0  0  0  0  0  0999 V2000
    1.6405   34.7141   25.2641 C   0  0  0  0  0  0  0  0  0  0  0  0
    0.2675   34.7037   24.9617 C   0  0  0  0  0  0  0  0  0  0  0  0
   -0.4145   35.9048   24.7287 C   0  0  0  0  0  0  0  0  0  0  0  0
    0.2540   37.1279   24.8324 C   0  0  0  0  0  0  0  0  0  0  0  0
    1.6338   37.1566   25.1284 C   0  0  0  0  0  0  0  0  0  0  0  0
    2.3030   35.9335   25.3388 C   0  0  0  0  0  0  0  0  0  0  0  0
   -0.4268   33.5350   24.9549 O   0  0  0  0  0  0  0  0  0  0  0  0
   -0.4342   38.2616   24.5666 O   0  0  0  0  0  0  0  0  0  0  0  0
    0.0180   32.7249   25.1094 H   0  0  0  0  0  0  0  0  0  0  0  0
   -0.0083   39.0939   24.6292 H   0  0  0  0  0  0  0  0  0  0  0  0
    2.4091   38.4134   25.3247 C   0  0  0  0  0  0  0  0  0  0  0  0
    2.6913   39.0924   26.4893 C   0  0  0  0  0  0  0  0  0  0  0  0
    3.4506   40.2152   26.1431 C   0  0  0  0  0  0  0  0  0  0  0  0
    3.6246   40.2308   24.8474 N   0  0  0  0  0  0  0  0  0  0  0  0
    3.0198   39.0898   24.2928 N   0  0  0  0  0  0  0  0  0  0  0  0
    3.0204   38.6860   22.9279 C   0  0  0  0  0  0  0  0  0  0  0  0
    2.0886   39.2123   22.0265 C   0  0  0  0  0  0  0  0  0  0  0  0
    2.0358   38.7807   20.6921 C   0  0  0  0  0  0  0  0  0  0  0  0
    2.9083   37.7799   20.2733 C   0  0  0  0  0  0  0  0  0  0  0  0
    3.8322   37.2400   21.1772 C   0  0  0  0  0  0  0  0  0  0  0  0
    3.8655   37.6466   22.5055 C   0  0  0  0  0  0  0  0  0  0  0  0
    1.0019   40.4342   22.5917 Cl  0  0  0  0  0  0  0  0  0  0  0  0
    2.4140   33.4088   25.4458 C   0  0  0  0  0  0  0  0  0  0  0  0
    3.9175   33.6939   25.5425 C   0  0  0  0  0  0  0  0  0  0  0  0
    5.2158   30.2172   24.7585 C   0  0  0  0  0  0  0  0  0  0  0  0
    7.0156   31.6288   25.5286 C   0  0  0  0  0  0  0  0  0  0  0  0
    6.1484   32.6282   25.7156 N   0  0  0  0  0  0  0  0  0  0  0  0
    4.3430   31.3039   24.9444 C   0  0  0  0  0  0  0  0  0  0  0  0
    6.5751   30.3955   25.0400 C   0  0  0  0  0  0  0  0  0  0  0  0
    4.8469   32.5017   25.4554 C   0  0  0  0  0  0  0  0  0  0  0  0
 13 14  2  0  0  0
 13 12  1  0  0  0
 14 15  1  0  0  0
 12 11  2  0  0  0
 11 15  1  0  0  0
 11  5  1  0  0  0
 15 16  1  0  0  0
 22 17  1  0  0  0
 16 17  2  0  0  0
 16 21  1  0  0  0
  5  6  2  0  0  0
  5  4  1  0  0  0
 17 18  1  0  0  0
  8  4  1  0  0  0
  6  1  1  0  0  0
  4  3  2  0  0  0
 28 25  2  0  0  0
 28 30  1  0  0  0
 24 30  1  0  0  0
 24 23  1  0  0  0
 21 20  2  0  0  0
 25 29  1  0  0  0
 18 19  2  0  0  0
 30 27  2  0  0  0
 29 26  2  0  0  0
  1 23  1  0  0  0
  1  2  2  0  0  0
 27 26  1  0  0  0
  3  2  1  0  0  0
 20 19  1  0  0  0
  2  7  1  0  0  0
  7  9  1  0  0  0
  8 10  1  0  0  0
M  END
> <minimizedAffinity>
-8.87382

$$$$
6ELP_BA8_A_301


 30 33  0  0  0  0  0  0  0  0999 V2000
    1.9257   34.4371   25.1257 C   0  0  0  0  0  0  0  0  0  0  0  0
    0.5319   34.6107   25.0644 C   0  0  0  0  0  0  0  0  0  0  0  0
   -0.0224   35.5961   24.2376 C   0  0  0  0  0  0  0  0  0  0  0  0
    0.8057   36.4424   23.4948 C   0  0  0  0  0  0  0  0  0  0  0  0
    2.2068   36.2778   23.5391 C   0  0  0  0  0  0  0  0  0  0  0  0
    2.7403   35.2655   24.3630 C   0  0  0  0  0  0  0  0  0  0  0  0
   -0.2893   33.8685   25.8536 O   0  0  0  0  0  0  0  0  0  0  0  0
    0.2282   37.3581   22.6839 O   0  0  0  0  0  0  0  0  0  0  0  0
    0.0693   33.2063   26.4110 H   0  0  0  0  0  0  0  0  0  0  0  0
    0.7619   37.9368   22.1758 H   0  0  0  0  0  0  0  0  0  0  0  0
    3.1651   37.1753   22.8353 C   0  0  0  0  0  0  0  0  0  0  0  0
    3.6833   37.0739   21.5634 C   0  0  0  0  0  0  0  0  0  0  0  0
    4.5394   38.1640   21.3743 C   0  0  0  0  0  0  0  0  0  0  0  0
    4.5517   38.8915   22.4606 N   0  0  0  0  0  0  0  0  0  0  0  0
    3.6664   38.3285   23.3958 N   0  0  0  0  0  0  0  0  0  0  0  0
    3.3334   38.8315   24.6850 C   0  0  0  0  0  0  0  0  0  0  0  0
    4.0653   38.4459   25.8135 C   0  0  0  0  0  0  0  0  0  0  0  0
    3.7136   38.8841   27.0995 C   0  0  0  0  0  0  0  0  0  0  0  0
    2.5884   39.6898   27.2519 C   0  0  0  0  0  0  0  0  0  0  0  0
    1.8445   40.0652   26.1259 C   0  0  0  0  0  0  0  0  0  0  0  0
    2.1756   39.6083   24.8561 C   0  0  0  0  0  0  0  0  0  0  0  0
    5.4405   37.4208   25.5871 Cl  0  0  0  0  0  0  0  0  0  0  0  0
    2.5411   33.3174   25.9639 C   0  0  0  0  0  0  0  0  0  0  0  0
    3.1111   32.2253   25.0510 C   0  0  0  0  0  0  0  0  0  0  0  0
    6.3499   30.2549   24.9274 C   0  0  0  0  0  0  0  0  0  0  0  0
    6.7541   32.4772   25.7778 C   0  0  0  0  0  0  0  0  0  0  0  0
    5.4466   32.7420   25.6998 N   0  0  0  0  0  0  0  0  0  0  0  0
    4.9862   30.5856   24.8363 C   0  0  0  0  0  0  0  0  0  0  0  0
    7.2444   31.2271   25.3892 C   0  0  0  0  0  0  0  0  0  0  0  0
    4.5619   31.8463   25.2611 C   0  0  0  0  0  0  0  0  0  0  0  0
 13 14  2  0  0  0
 13 12  1  0  0  0
 14 15  1  0  0  0
 12 11  2  0  0  0
 11 15  1  0  0  0
 11  5  1  0  0  0
 15 16  1  0  0  0
 22 17  1  0  0  0
 16 17  2  0  0  0
 16 21  1  0  0  0
  5  6  2  0  0  0
  5  4  1  0  0  0
 17 18  1  0  0  0
  8  4  1  0  0  0
  6  1  1  0  0  0
  4  3  2  0  0  0
 28 25  2  0  0  0
 28 30  1  0  0  0
 24 30  1  0  0  0
 24 23  1  0  0  0
 21 20  2  0  0  0
 25 29  1  0  0  0
 18 19  2  0  0  0
 30 27  2  0  0  0
 29 26  2  0  0  0
  1 23  1  0  0  0
  1  2  2  0  0  0
 27 26  1  0  0  0
  3  2  1  0  0  0
 20 19  1  0  0  0
  2  7  1  0  0  0
  7  9  1  0  0  0
  8 10  1  0  0  0
M  END
> <minimizedAffinity>
-8.81456

$$$$
6ELP_BA8_A_301


 30 33  0  0  0  0  0  0  0  0999 V2000
    3.3565   35.4802   25.8542 C   0  0  0  0  0  0  0  0  0  0  0  0
    4.5728   36.0086   26.3213 C   0  0  0  0  0  0  0  0  0  0  0  0
    4.8616   37.3695   26.1590 C   0  0  0  0  0  0  0  0  0  0  0  0
    3.9607   38.2084   25.4967 C   0  0  0  0  0  0  0  0  0  0  0  0
    2.7321   37.6963   25.0274 C   0  0  0  0  0  0  0  0  0  0  0  0
    2.4551   36.3273   25.2206 C   0  0  0  0  0  0  0  0  0  0  0  0
    5.5083   35.1941   26.8776 O   0  0  0  0  0  0  0  0  0  0  0  0
    4.2638   39.5224   25.3914 O   0  0  0  0  0  0  0  0  0  0  0  0
    5.3272   34.2819   26.9916 H   0  0  0  0  0  0  0  0  0  0  0  0
    3.6760   40.1050   24.9520 H   0  0  0  0  0  0  0  0  0  0  0  0
    1.7455   38.5003   24.2531 C   0  0  0  0  0  0  0  0  0  0  0  0
    0.5589   39.0623   24.6687 C   0  0  0  0  0  0  0  0  0  0  0  0
   -0.0005   39.7171   23.5662 C   0  0  0  0  0  0  0  0  0  0  0  0
    0.7885   39.5675   22.5345 N   0  0  0  0  0  0  0  0  0  0  0  0
    1.9244   38.8411   22.9313 N   0  0  0  0  0  0  0  0  0  0  0  0
    3.0579   38.5050   22.1388 C   0  0  0  0  0  0  0  0  0  0  0  0
    4.0270   39.4670   21.8333 C   0  0  0  0  0  0  0  0  0  0  0  0
    5.1189   39.1689   21.0036 C   0  0  0  0  0  0  0  0  0  0  0  0
    5.2133   37.8967   20.4461 C   0  0  0  0  0  0  0  0  0  0  0  0
    4.2366   36.9358   20.7377 C   0  0  0  0  0  0  0  0  0  0  0  0
    3.1404   37.2390   21.5358 C   0  0  0  0  0  0  0  0  0  0  0  0
    3.8602   41.0453   22.5222 Cl  0  0  0  0  0  0  0  0  0  0  0  0
    2.9948   34.0147   26.0914 C   0  0  0  0  0  0  0  0  0  0  0  0
    3.3921   33.1683   24.8762 C   0  0  0  0  0  0  0  0  0  0  0  0
    5.4457   29.9851   24.6822 C   0  0  0  0  0  0  0  0  0  0  0  0
    6.7751   31.7850   25.5865 C   0  0  0  0  0  0  0  0  0  0  0  0
    5.7151   32.5962   25.5234 N   0  0  0  0  0  0  0  0  0  0  0  0
    4.3639   30.8804   24.6081 C   0  0  0  0  0  0  0  0  0  0  0  0
    6.6724   30.4568   25.1632 C   0  0  0  0  0  0  0  0  0  0  0  0
    4.5305   32.1885   25.0675 C   0  0  0  0  0  0  0  0  0  0  0  0
 13 14  2  0  0  0
 13 12  1  0  0  0
 14 15  1  0  0  0
 12 11  2  0  0  0
 11 15  1  0  0  0
 11  5  1  0  0  0
 15 16  1  0  0  0
 22 17  1  0  0  0
 16 17  2  0  0  0
 16 21  1  0  0  0
  5  6  2  0  0  0
  5  4  1  0  0  0
 17 18  1  0  0  0
  8  4  1  0  0  0
  6  1  1  0  0  0
  4  3  2  0  0  0
 28 25  2  0  0  0
 28 30  1  0  0  0
 24 30  1  0  0  0
 24 23  1  0  0  0
 21 20  2  0  0  0
 25 29  1  0  0  0
 18 19  2  0  0  0
 30 27  2  0  0  0
 29 26  2  0  0  0
  1 23  1  0  0  0
  1  2  2  0  0  0
 27 26  1  0  0  0
  3  2  1  0  0  0
 20 19  1  0  0  0
  2  7  1  0  0  0
  7  9  1  0  0  0
  8 10  1  0  0  0
M  END
> <minimizedAffinity>
-8.53232

$$$$
6ELP_BA8_A_301


 30 33  0  0  0  0  0  0  0  0999 V2000
    3.4824   37.4815   23.5443 C   0  0  0  0  0  0  0  0  0  0  0  0
    4.5413   38.0948   22.8518 C   0  0  0  0  0  0  0  0  0  0  0  0
    5.7057   38.4736   23.5318 C   0  0  0  0  0  0  0  0  0  0  0  0
    5.8116   38.2811   24.9122 C   0  0  0  0  0  0  0  0  0  0  0  0
    4.7611   37.6608   25.6221 C   0  0  0  0  0  0  0  0  0  0  0  0
    3.6073   37.2698   24.9121 C   0  0  0  0  0  0  0  0  0  0  0  0
    4.4219   38.3848   21.5291 O   0  0  0  0  0  0  0  0  0  0  0  0
    6.9663   38.6306   25.5237 O   0  0  0  0  0  0  0  0  0  0  0  0
    3.6479   38.1367   21.0630 H   0  0  0  0  0  0  0  0  0  0  0  0
    7.0617   38.5113   26.4482 H   0  0  0  0  0  0  0  0  0  0  0  0
    4.7601   37.4781   27.1005 C   0  0  0  0  0  0  0  0  0  0  0  0
    4.4266   38.3750   28.0910 C   0  0  0  0  0  0  0  0  0  0  0  0
    4.5903   37.7216   29.3171 C   0  0  0  0  0  0  0  0  0  0  0  0
    5.0010   36.4997   29.0988 N   0  0  0  0  0  0  0  0  0  0  0  0
    5.0826   36.2874   27.7118 N   0  0  0  0  0  0  0  0  0  0  0  0
    5.4315   35.0827   27.0390 C   0  0  0  0  0  0  0  0  0  0  0  0
    6.7730   34.7330   26.8489 C   0  0  0  0  0  0  0  0  0  0  0  0
    7.1353   33.5802   26.1351 C   0  0  0  0  0  0  0  0  0  0  0  0
    6.1333   32.7924   25.5751 C   0  0  0  0  0  0  0  0  0  0  0  0
    4.7898   33.1480   25.7506 C   0  0  0  0  0  0  0  0  0  0  0  0
    4.4317   34.3044   26.4326 C   0  0  0  0  0  0  0  0  0  0  0  0
    7.9905   35.7524   27.5357 Cl  0  0  0  0  0  0  0  0  0  0  0  0
    2.2380   36.9942   22.8033 C   0  0  0  0  0  0  0  0  0  0  0  0
    1.0053   37.1073   23.7082 C   0  0  0  0  0  0  0  0  0  0  0  0
    0.7889   33.5697   25.0592 C   0  0  0  0  0  0  0  0  0  0  0  0
   -1.3622   34.6542   25.2046 C   0  0  0  0  0  0  0  0  0  0  0  0
   -0.8512   35.7408   24.6182 N   0  0  0  0  0  0  0  0  0  0  0  0
    1.2914   34.7433   24.4697 C   0  0  0  0  0  0  0  0  0  0  0  0
   -0.5555   33.5385   25.4466 C   0  0  0  0  0  0  0  0  0  0  0  0
    0.4247   35.8134   24.2384 C   0  0  0  0  0  0  0  0  0  0  0  0
 13 14  2  0  0  0
 13 12  1  0  0  0
 14 15  1  0  0  0
 12 11  2  0  0  0
 11 15  1  0  0  0
 11  5  1  0  0  0
 15 16  1  0  0  0
 22 17  1  0  0  0
 16 17  2  0  0  0
 16 21  1  0  0  0
  5  6  2  0  0  0
  5  4  1  0  0  0
 17 18  1  0  0  0
  8  4  1  0  0  0
  6  1  1  0  0  0
  4  3  2  0  0  0
 28 25  2  0  0  0
 28 30  1  0  0  0
 24 30  1  0  0  0
 24 23  1  0  0  0
 21 20  2  0  0  0
 25 29  1  0  0  0
 18 19  2  0  0  0
 30 27  2  0  0  0
 29 26  2  0  0  0
  1 23  1  0  0  0
  1  2  2  0  0  0
 27 26  1  0  0  0
  3  2  1  0  0  0
 20 19  1  0  0  0
  2  7  1  0  0  0
  7  9  1  0  0  0
  8 10  1  0  0  0
M  END
> <minimizedAffinity>
-8.51897

$$$$
6ELP_BA8_A_301


 30 33  0  0  0  0  0  0  0  0999 V2000
    6.3620   36.2283   26.2061 C   0  0  0  0  0  0  0  0  0  0  0  0
    7.5381   36.9051   25.8382 C   0  0  0  0  0  0  0  0  0  0  0  0
    7.4939   38.2602   25.4866 C   0  0  0  0  0  0  0  0  0  0  0  0
    6.2748   38.9435   25.4606 C   0  0  0  0  0  0  0  0  0  0  0  0
    5.0853   38.2816   25.8336 C   0  0  0  0  0  0  0  0  0  0  0  0
    5.1582   36.9228   26.2032 C   0  0  0  0  0  0  0  0  0  0  0  0
    8.7196   36.2375   25.7577 O   0  0  0  0  0  0  0  0  0  0  0  0
    6.2816   40.2595   25.1479 O   0  0  0  0  0  0  0  0  0  0  0  0
    8.7622   35.3308   25.9900 H   0  0  0  0  0  0  0  0  0  0  0  0
    5.4773   40.7395   25.1238 H   0  0  0  0  0  0  0  0  0  0  0  0
    3.7366   38.9110   25.7698 C   0  0  0  0  0  0  0  0  0  0  0  0
    2.9806   39.4600   26.7816 C   0  0  0  0  0  0  0  0  0  0  0  0
    1.7893   39.9188   26.2095 C   0  0  0  0  0  0  0  0  0  0  0  0
    1.8066   39.6674   24.9266 N   0  0  0  0  0  0  0  0  0  0  0  0
    3.0347   39.0690   24.5961 N   0  0  0  0  0  0  0  0  0  0  0  0
    3.4918   38.6866   23.3036 C   0  0  0  0  0  0  0  0  0  0  0  0
    3.3175   37.3771   22.8424 C   0  0  0  0  0  0  0  0  0  0  0  0
    3.8155   36.9671   21.5960 C   0  0  0  0  0  0  0  0  0  0  0  0
    4.5300   37.8788   20.8236 C   0  0  0  0  0  0  0  0  0  0  0  0
    4.7195   39.1863   21.2891 C   0  0  0  0  0  0  0  0  0  0  0  0
    4.2514   39.5844   22.5354 C   0  0  0  0  0  0  0  0  0  0  0  0
    2.4488   36.2649   23.8433 Cl  0  0  0  0  0  0  0  0  0  0  0  0
    6.4056   34.7715   26.6651 C   0  0  0  0  0  0  0  0  0  0  0  0
    5.1489   34.0303   26.1934 C   0  0  0  0  0  0  0  0  0  0  0  0
    6.8134   30.7732   25.1893 C   0  0  0  0  0  0  0  0  0  0  0  0
    4.4392   30.6642   24.7692 C   0  0  0  0  0  0  0  0  0  0  0  0
    4.3106   31.9285   25.1825 N   0  0  0  0  0  0  0  0  0  0  0  0
    6.6281   32.0919   25.6412 C   0  0  0  0  0  0  0  0  0  0  0  0
    5.6940   30.0482   24.7651 C   0  0  0  0  0  0  0  0  0  0  0  0
    5.3499   32.6524   25.5989 C   0  0  0  0  0  0  0  0  0  0  0  0
 13 14  2  0  0  0
 13 12  1  0  0  0
 14 15  1  0  0  0
 12 11  2  0  0  0
 11 15  1  0  0  0
 11  5  1  0  0  0
 15 16  1  0  0  0
 22 17  1  0  0  0
 16 17  2  0  0  0
 16 21  1  0  0  0
  5  6  2  0  0  0
  5  4  1  0  0  0
 17 18  1  0  0  0
  8  4  1  0  0  0
  6  1  1  0  0  0
  4  3  2  0  0  0
 28 25  2  0  0  0
 28 30  1  0  0  0
 24 30  1  0  0  0
 24 23  1  0  0  0
 21 20  2  0  0  0
 25 29  1  0  0  0
 18 19  2  0  0  0
 30 27  2  0  0  0
 29 26  2  0  0  0
  1 23  1  0  0  0
  1  2  2  0  0  0
 27 26  1  0  0  0
  3  2  1  0  0  0
 20 19  1  0  0  0
  2  7  1  0  0  0
  7  9  1  0  0  0
  8 10  1  0  0  0
M  END
> <minimizedAffinity>
-8.49074

$$$$
6ELP_BA8_A_301


 30 33  0  0  0  0  0  0  0  0999 V2000
    4.5128   33.6896   25.8055 C   0  0  0  0  0  0  0  0  0  0  0  0
    5.8569   33.2878   25.8984 C   0  0  0  0  0  0  0  0  0  0  0  0
    6.8207   34.1584   26.4229 C   0  0  0  0  0  0  0  0  0  0  0  0
    6.4633   35.4490   26.8233 C   0  0  0  0  0  0  0  0  0  0  0  0
    5.1174   35.8666   26.7434 C   0  0  0  0  0  0  0  0  0  0  0  0
    4.1618   34.9653   26.2309 C   0  0  0  0  0  0  0  0  0  0  0  0
    6.2473   32.0759   25.4221 O   0  0  0  0  0  0  0  0  0  0  0  0
    7.4187   36.2452   27.3551 O   0  0  0  0  0  0  0  0  0  0  0  0
    5.6121   31.4846   25.0688 H   0  0  0  0  0  0  0  0  0  0  0  0
    7.2039   37.1145   27.6311 H   0  0  0  0  0  0  0  0  0  0  0  0
    4.6596   37.2429   27.0830 C   0  0  0  0  0  0  0  0  0  0  0  0
    4.5988   37.8650   28.3103 C   0  0  0  0  0  0  0  0  0  0  0  0
    4.0975   39.1539   28.0996 C   0  0  0  0  0  0  0  0  0  0  0  0
    3.8611   39.3175   26.8241 N   0  0  0  0  0  0  0  0  0  0  0  0
    4.2402   38.1513   26.1373 N   0  0  0  0  0  0  0  0  0  0  0  0
    4.2060   37.9235   24.7328 C   0  0  0  0  0  0  0  0  0  0  0  0
    5.2545   38.3555   23.9130 C   0  0  0  0  0  0  0  0  0  0  0  0
    5.2093   38.1934   22.5197 C   0  0  0  0  0  0  0  0  0  0  0  0
    4.0769   37.6231   21.9446 C   0  0  0  0  0  0  0  0  0  0  0  0
    3.0189   37.2035   22.7612 C   0  0  0  0  0  0  0  0  0  0  0  0
    3.0509   37.3898   24.1378 C   0  0  0  0  0  0  0  0  0  0  0  0
    6.6327   39.0854   24.6620 Cl  0  0  0  0  0  0  0  0  0  0  0  0
    3.4379   32.7248   25.3067 C   0  0  0  0  0  0  0  0  0  0  0  0
    2.2051   32.7903   26.2161 C   0  0  0  0  0  0  0  0  0  0  0  0
   -1.4341   33.7715   25.7909 C   0  0  0  0  0  0  0  0  0  0  0  0
   -0.0760   34.8441   24.1086 C   0  0  0  0  0  0  0  0  0  0  0  0
    1.0030   34.2130   24.5810 N   0  0  0  0  0  0  0  0  0  0  0  0
   -0.2684   33.1495   26.2722 C   0  0  0  0  0  0  0  0  0  0  0  0
   -1.3254   34.6453   24.7031 C   0  0  0  0  0  0  0  0  0  0  0  0
    0.9439   33.3769   25.6178 C   0  0  0  0  0  0  0  0  0  0  0  0
 13 14  2  0  0  0
 13 12  1  0  0  0
 14 15  1  0  0  0
 12 11  2  0  0  0
 11 15  1  0  0  0
 11  5  1  0  0  0
 15 16  1  0  0  0
 22 17  1  0  0  0
 16 17  2  0  0  0
 16 21  1  0  0  0
  5  6  2  0  0  0
  5  4  1  0  0  0
 17 18  1  0  0  0
  8  4  1  0  0  0
  6  1  1  0  0  0
  4  3  2  0  0  0
 28 25  2  0  0  0
 28 30  1  0  0  0
 24 30  1  0  0  0
 24 23  1  0  0  0
 21 20  2  0  0  0
 25 29  1  0  0  0
 18 19  2  0  0  0
 30 27  2  0  0  0
 29 26  2  0  0  0
  1 23  1  0  0  0
  1  2  2  0  0  0
 27 26  1  0  0  0
  3  2  1  0  0  0
 20 19  1  0  0  0
  2  7  1  0  0  0
  7  9  1  0  0  0
  8 10  1  0  0  0
M  END
> <minimizedAffinity>
-8.37596

$$$$
