5T9W_78E_A_300


 44 46  0  0  0  0  0  0  0  0999 V2000
    5.7084  -19.6451   -0.9985 N   0  0  0  0  0  0  0  0  0  0  0  0
    6.2210  -19.4052    1.8702 C   0  0  0  0  0  0  0  0  0  0  0  0
    6.4163  -20.6237   -0.2615 N   0  0  0  0  0  0  0  0  0  0  0  0
    4.7800  -18.8408   -0.1762 C   0  0  0  0  0  0  0  0  0  0  0  0
    4.2057  -17.6546   -0.9549 C   0  0  0  0  0  0  0  0  0  0  0  0
    2.2049  -16.2900   -1.1147 C   0  0  0  0  0  0  0  0  0  0  0  0
    1.7067  -17.7377   -3.1375 C   0  0  0  0  0  0  0  0  0  0  0  0
    5.1440  -25.0674   -5.5766 C   0  0  0  0  0  0  0  0  0  0  0  0
    2.1252  -16.3666   -2.6525 C   0  0  0  0  0  0  0  0  0  0  0  0
    2.4110  -18.4490   -4.0325 C   0  0  0  0  0  0  0  0  0  0  0  0
    5.4376  -18.3092    1.1345 C   0  0  0  0  0  0  0  0  0  0  0  0
    7.1757  -20.1093    0.8890 C   0  0  0  0  0  0  0  0  0  0  0  0
    1.9916  -19.7545   -4.4827 C   0  0  0  0  0  0  0  0  0  0  0  0
    2.9485  -17.3667   -0.5479 O   0  0  0  0  0  0  0  0  0  0  0  0
    2.6885  -20.4805   -5.3688 C   0  0  0  0  0  0  0  0  0  0  0  0
    4.8304  -17.0537   -1.8203 O   0  0  0  0  0  0  0  0  0  0  0  0
    4.7597  -25.6229   -4.5491 O   0  0  0  0  0  0  0  0  0  0  0  0
    2.2517  -21.8463   -5.8435 C   0  0  0  0  0  0  0  0  0  0  0  0
    3.4536  -22.7769   -6.0022 C   0  0  0  0  0  0  0  0  0  0  0  0
    3.1289  -24.0653   -6.7735 C   0  0  0  0  0  0  0  0  0  0  0  0
    4.2675  -25.1068   -6.8275 C   0  0  0  0  0  0  0  0  0  0  0  0
    6.3116  -24.4135   -5.6777 N   0  0  0  0  0  0  0  0  0  0  0  0
    7.2895  -24.2138   -4.6079 C   0  0  0  0  0  0  0  0  0  0  0  0
    6.8144  -22.9935   -3.8104 C   0  0  0  0  0  0  0  0  0  0  0  0
    7.0868  -21.8521   -4.1844 O   0  0  0  0  0  0  0  0  0  0  0  0
    6.0728  -23.2502   -2.7379 N   0  0  0  0  0  0  0  0  0  0  0  0
    5.4625  -22.2678   -1.8621 C   0  0  0  0  0  0  0  0  0  0  0  0
    6.3323  -21.9197   -0.6316 C   0  0  0  0  0  0  0  0  0  0  0  0
    6.9110  -22.8066   -0.0170 O   0  0  0  0  0  0  0  0  0  0  0  0
    5.1697  -20.1161   -1.7254 H   0  0  0  0  0  0  0  0  0  0  0  0
    6.5317  -24.0309   -6.5577 H   0  0  0  0  0  0  0  0  0  0  0  0
    5.9232  -24.1977   -2.5166 H   0  0  0  0  0  0  0  0  0  0  0  0
    8.7860  -24.2821   -5.0160 C   0  0  0  0  0  0  0  0  0  0  0  0
    9.1241  -25.2900   -6.1284 C   0  0  0  0  0  0  0  0  0  0  0  0
    9.6595  -24.5400   -3.7680 C   0  0  0  0  0  0  0  0  0  0  0  0
    4.1470  -22.9570   -1.4144 C   0  0  0  0  0  0  0  0  0  0  0  0
    3.2542  -22.0982   -0.5289 C   0  0  0  0  0  0  0  0  0  0  0  0
    2.2629  -21.2600   -1.0930 C   0  0  0  0  0  0  0  0  0  0  0  0
    1.4406  -20.4671   -0.2590 C   0  0  0  0  0  0  0  0  0  0  0  0
    3.4127  -22.1513    0.8679 C   0  0  0  0  0  0  0  0  0  0  0  0
    2.6044  -21.3586    1.7019 C   0  0  0  0  0  0  0  0  0  0  0  0
    1.6152  -20.5211    1.1398 C   0  0  0  0  0  0  0  0  0  0  0  0
    2.7860  -21.4194    3.0531 O   0  0  0  0  0  0  0  0  0  0  0  0
    3.4459  -21.9793    3.4124 H   0  0  0  0  0  0  0  0  0  0  0  0
 21 20  1  0  0  0
 21  8  1  0  0  0
 20 19  1  0  0  0
 34 33  1  0  0  0
 19 18  1  0  0  0
 22  8  1  0  0  0
 22 23  1  0  0  0
 18 15  1  0  0  0
  8 17  2  0  0  0
 15 13  2  0  0  0
 33 23  1  0  0  0
 33 35  1  0  0  0
 23 24  1  0  0  0
 13 10  1  0  0  0
 25 24  2  0  0  0
 24 26  1  0  0  0
 10  7  2  0  0  0
  7  9  1  0  0  0
 26 27  1  0  0  0
  9  6  1  0  0  0
 27 36  1  0  0  0
 27 28  1  0  0  0
 16  5  2  0  0  0
 36 37  1  0  0  0
  1  3  1  0  0  0
  1  4  1  0  0  0
 38 37  2  0  0  0
 38 39  1  0  0  0
  6 14  1  0  0  0
  5 14  1  0  0  0
  5  4  1  0  0  0
 28  3  1  0  0  0
 28 29  2  0  0  0
 37 40  1  0  0  0
  3 12  1  0  0  0
  4 11  1  0  0  0
 39 42  2  0  0  0
 12  2  1  0  0  0
 40 41  2  0  0  0
 11  2  1  0  0  0
 42 41  1  0  0  0
 41 43  1  0  0  0
  1 30  1  0  0  0
 22 31  1  0  0  0
 26 32  1  0  0  0
 43 44  1  0  0  0
M  END
> <minimizedAffinity>
-9.19634

$$$$
5T9W_78E_A_300


 44 46  0  0  0  0  0  0  0  0999 V2000
    4.6562  -24.0587   -3.3384 N   0  0  0  0  0  0  0  0  0  0  0  0
    6.4080  -24.5425   -5.6290 C   0  0  0  0  0  0  0  0  0  0  0  0
    5.7439  -23.2143   -3.6638 N   0  0  0  0  0  0  0  0  0  0  0  0
    4.1223  -24.8093   -4.4945 C   0  0  0  0  0  0  0  0  0  0  0  0
    3.1059  -25.8714   -4.0679 C   0  0  0  0  0  0  0  0  0  0  0  0
    1.1044  -26.9956   -4.8562 C   0  0  0  0  0  0  0  0  0  0  0  0
   -0.0876  -25.3713   -3.3144 C   0  0  0  0  0  0  0  0  0  0  0  0
    2.7258  -18.3161    0.4000 C   0  0  0  0  0  0  0  0  0  0  0  0
    0.3296  -26.8091   -3.5364 C   0  0  0  0  0  0  0  0  0  0  0  0
    0.2043  -24.6837   -2.1986 C   0  0  0  0  0  0  0  0  0  0  0  0
    5.2398  -25.4952   -5.3393 C   0  0  0  0  0  0  0  0  0  0  0  0
    6.8783  -23.8836   -4.3195 C   0  0  0  0  0  0  0  0  0  0  0  0
   -0.2058  -23.3133   -2.0074 C   0  0  0  0  0  0  0  0  0  0  0  0
    2.1567  -26.0465   -5.0153 O   0  0  0  0  0  0  0  0  0  0  0  0
    0.0857  -22.6108   -0.9031 C   0  0  0  0  0  0  0  0  0  0  0  0
    3.1744  -26.4784   -3.0062 O   0  0  0  0  0  0  0  0  0  0  0  0
    2.9376  -17.7911   -0.6915 O   0  0  0  0  0  0  0  0  0  0  0  0
   -0.3435  -21.1770   -0.6988 C   0  0  0  0  0  0  0  0  0  0  0  0
    0.7546  -20.3749   -0.0011 C   0  0  0  0  0  0  0  0  0  0  0  0
    0.2761  -19.0105    0.5182 C   0  0  0  0  0  0  0  0  0  0  0  0
    1.3815  -18.0985    1.0929 C   0  0  0  0  0  0  0  0  0  0  0  0
    3.6185  -19.0856    1.0421 N   0  0  0  0  0  0  0  0  0  0  0  0
    4.9471  -19.4614    0.5580 C   0  0  0  0  0  0  0  0  0  0  0  0
    4.7457  -20.6726   -0.3605 C   0  0  0  0  0  0  0  0  0  0  0  0
    4.6649  -21.8096    0.1058 O   0  0  0  0  0  0  0  0  0  0  0  0
    4.6271  -20.4079   -1.6574 N   0  0  0  0  0  0  0  0  0  0  0  0
    4.3741  -21.3735   -2.7101 C   0  0  0  0  0  0  0  0  0  0  0  0
    5.6636  -21.8952   -3.3858 C   0  0  0  0  0  0  0  0  0  0  0  0
    6.5695  -21.1195   -3.6632 O   0  0  0  0  0  0  0  0  0  0  0  0
    3.9065  -23.4845   -2.9528 H   0  0  0  0  0  0  0  0  0  0  0  0
    3.3535  -19.4309    1.9251 H   0  0  0  0  0  0  0  0  0  0  0  0
    4.7198  -19.4664   -1.9298 H   0  0  0  0  0  0  0  0  0  0  0  0
    6.0773  -19.5303    1.6202 C   0  0  0  0  0  0  0  0  0  0  0  0
    6.1557  -18.3325    2.5830 C   0  0  0  0  0  0  0  0  0  0  0  0
    7.4384  -19.7561    0.9250 C   0  0  0  0  0  0  0  0  0  0  0  0
    3.5174  -20.5757   -3.7278 C   0  0  0  0  0  0  0  0  0  0  0  0
    2.9323  -21.4153   -4.8554 C   0  0  0  0  0  0  0  0  0  0  0  0
    1.6943  -22.0828   -4.6963 C   0  0  0  0  0  0  0  0  0  0  0  0
    1.1623  -22.8597   -5.7516 C   0  0  0  0  0  0  0  0  0  0  0  0
    3.6293  -21.5159   -6.0732 C   0  0  0  0  0  0  0  0  0  0  0  0
    3.1102  -22.2942   -7.1229 C   0  0  0  0  0  0  0  0  0  0  0  0
    1.8749  -22.9613   -6.9649 C   0  0  0  0  0  0  0  0  0  0  0  0
    3.8115  -22.3852   -8.2901 O   0  0  0  0  0  0  0  0  0  0  0  0
    4.6296  -21.9375   -8.3812 H   0  0  0  0  0  0  0  0  0  0  0  0
 21 20  1  0  0  0
 21  8  1  0  0  0
 20 19  1  0  0  0
 34 33  1  0  0  0
 19 18  1  0  0  0
 22  8  1  0  0  0
 22 23  1  0  0  0
 18 15  1  0  0  0
  8 17  2  0  0  0
 15 13  2  0  0  0
 33 23  1  0  0  0
 33 35  1  0  0  0
 23 24  1  0  0  0
 13 10  1  0  0  0
 25 24  2  0  0  0
 24 26  1  0  0  0
 10  7  2  0  0  0
  7  9  1  0  0  0
 26 27  1  0  0  0
  9  6  1  0  0  0
 27 36  1  0  0  0
 27 28  1  0  0  0
 16  5  2  0  0  0
 36 37  1  0  0  0
  1  3  1  0  0  0
  1  4  1  0  0  0
 38 37  2  0  0  0
 38 39  1  0  0  0
  6 14  1  0  0  0
  5 14  1  0  0  0
  5  4  1  0  0  0
 28  3  1  0  0  0
 28 29  2  0  0  0
 37 40  1  0  0  0
  3 12  1  0  0  0
  4 11  1  0  0  0
 39 42  2  0  0  0
 12  2  1  0  0  0
 40 41  2  0  0  0
 11  2  1  0  0  0
 42 41  1  0  0  0
 41 43  1  0  0  0
  1 30  1  0  0  0
 22 31  1  0  0  0
 26 32  1  0  0  0
 43 44  1  0  0  0
M  END
> <minimizedAffinity>
-6.84503

$$$$
5T9W_78E_A_300


 44 46  0  0  0  0  0  0  0  0999 V2000
    1.8881  -20.6728    0.4807 N   0  0  0  0  0  0  0  0  0  0  0  0
   -0.0838  -18.6464    1.2258 C   0  0  0  0  0  0  0  0  0  0  0  0
    0.6370  -20.5453   -0.1677 N   0  0  0  0  0  0  0  0  0  0  0  0
    2.3594  -19.4212    1.1102 C   0  0  0  0  0  0  0  0  0  0  0  0
    3.5933  -19.6501    1.9868 C   0  0  0  0  0  0  0  0  0  0  0  0
    5.6127  -18.5313    2.7359 C   0  0  0  0  0  0  0  0  0  0  0  0
    6.7333  -19.9463    0.9533 C   0  0  0  0  0  0  0  0  0  0  0  0
    3.3662  -24.3184   -5.4527 C   0  0  0  0  0  0  0  0  0  0  0  0
    6.5360  -19.7296    2.4380 C   0  0  0  0  0  0  0  0  0  0  0  0
    6.5022  -21.1200    0.3433 C   0  0  0  0  0  0  0  0  0  0  0  0
    1.2587  -18.7223    1.9663 C   0  0  0  0  0  0  0  0  0  0  0  0
   -0.4544  -20.0365    0.6779 C   0  0  0  0  0  0  0  0  0  0  0  0
    6.6994  -21.3047   -1.0744 C   0  0  0  0  0  0  0  0  0  0  0  0
    4.4035  -18.5673    1.9809 O   0  0  0  0  0  0  0  0  0  0  0  0
    6.4645  -22.4676   -1.6993 C   0  0  0  0  0  0  0  0  0  0  0  0
    3.7900  -20.6847    2.6123 O   0  0  0  0  0  0  0  0  0  0  0  0
    2.9058  -23.2921   -5.9494 O   0  0  0  0  0  0  0  0  0  0  0  0
    6.6715  -22.6650   -3.1825 C   0  0  0  0  0  0  0  0  0  0  0  0
    5.5725  -23.5485   -3.7720 C   0  0  0  0  0  0  0  0  0  0  0  0
    5.8871  -24.0472   -5.1907 C   0  0  0  0  0  0  0  0  0  0  0  0
    4.7438  -24.8146   -5.8891 C   0  0  0  0  0  0  0  0  0  0  0  0
    2.7240  -25.0526   -4.5308 N   0  0  0  0  0  0  0  0  0  0  0  0
    1.4201  -24.7539   -3.9382 C   0  0  0  0  0  0  0  0  0  0  0  0
    1.6813  -23.7672   -2.7940 C   0  0  0  0  0  0  0  0  0  0  0  0
    2.0225  -24.1698   -1.6813 O   0  0  0  0  0  0  0  0  0  0  0  0
    1.5554  -22.4788   -3.0946 N   0  0  0  0  0  0  0  0  0  0  0  0
    1.8051  -21.3619   -2.2032 C   0  0  0  0  0  0  0  0  0  0  0  0
    0.5348  -20.8621   -1.4765 C   0  0  0  0  0  0  0  0  0  0  0  0
   -0.5204  -20.7526   -2.0879 O   0  0  0  0  0  0  0  0  0  0  0  0
    2.5799  -20.9672   -0.2087 H   0  0  0  0  0  0  0  0  0  0  0  0
    3.1743  -25.8723   -4.2234 H   0  0  0  0  0  0  0  0  0  0  0  0
    1.2650  -22.2616   -4.0099 H   0  0  0  0  0  0  0  0  0  0  0  0
    0.4921  -25.9669   -3.6590 C   0  0  0  0  0  0  0  0  0  0  0  0
    0.5156  -27.0780   -4.7233 C   0  0  0  0  0  0  0  0  0  0  0  0
   -0.9537  -25.4778   -3.4189 C   0  0  0  0  0  0  0  0  0  0  0  0
    2.3505  -20.2628   -3.1522 C   0  0  0  0  0  0  0  0  0  0  0  0
    2.7933  -18.9859   -2.4506 C   0  0  0  0  0  0  0  0  0  0  0  0
    1.9146  -17.8830   -2.3279 C   0  0  0  0  0  0  0  0  0  0  0  0
    2.3387  -16.7028   -1.6741 C   0  0  0  0  0  0  0  0  0  0  0  0
    4.0892  -18.9110   -1.9086 C   0  0  0  0  0  0  0  0  0  0  0  0
    4.5199  -17.7371   -1.2655 C   0  0  0  0  0  0  0  0  0  0  0  0
    3.6440  -16.6354   -1.1430 C   0  0  0  0  0  0  0  0  0  0  0  0
    5.7860  -17.6854   -0.7585 O   0  0  0  0  0  0  0  0  0  0  0  0
    6.3565  -18.4234   -0.8468 H   0  0  0  0  0  0  0  0  0  0  0  0
 21 20  1  0  0  0
 21  8  1  0  0  0
 20 19  1  0  0  0
 34 33  1  0  0  0
 19 18  1  0  0  0
 22  8  1  0  0  0
 22 23  1  0  0  0
 18 15  1  0  0  0
  8 17  2  0  0  0
 15 13  2  0  0  0
 33 23  1  0  0  0
 33 35  1  0  0  0
 23 24  1  0  0  0
 13 10  1  0  0  0
 25 24  2  0  0  0
 24 26  1  0  0  0
 10  7  2  0  0  0
  7  9  1  0  0  0
 26 27  1  0  0  0
  9  6  1  0  0  0
 27 36  1  0  0  0
 27 28  1  0  0  0
 16  5  2  0  0  0
 36 37  1  0  0  0
  1  3  1  0  0  0
  1  4  1  0  0  0
 38 37  2  0  0  0
 38 39  1  0  0  0
  6 14  1  0  0  0
  5 14  1  0  0  0
  5  4  1  0  0  0
 28  3  1  0  0  0
 28 29  2  0  0  0
 37 40  1  0  0  0
  3 12  1  0  0  0
  4 11  1  0  0  0
 39 42  2  0  0  0
 12  2  1  0  0  0
 40 41  2  0  0  0
 11  2  1  0  0  0
 42 41  1  0  0  0
 41 43  1  0  0  0
  1 30  1  0  0  0
 22 31  1  0  0  0
 26 32  1  0  0  0
 43 44  1  0  0  0
M  END
> <minimizedAffinity>
-6.73862

$$$$
5T9W_78E_A_300


 44 46  0  0  0  0  0  0  0  0999 V2000
    4.1177  -20.4792   -5.3826 N   0  0  0  0  0  0  0  0  0  0  0  0
    3.1443  -21.3371   -8.0029 C   0  0  0  0  0  0  0  0  0  0  0  0
    2.8314  -20.1467   -5.8693 N   0  0  0  0  0  0  0  0  0  0  0  0
    4.6771  -21.7103   -5.9796 C   0  0  0  0  0  0  0  0  0  0  0  0
    6.1469  -21.9130   -5.6029 C   0  0  0  0  0  0  0  0  0  0  0  0
    7.7652  -23.6732   -5.1863 C   0  0  0  0  0  0  0  0  0  0  0  0
    7.3117  -23.1406   -2.7477 C   0  0  0  0  0  0  0  0  0  0  0  0
    1.0529  -18.6899    0.7887 C   0  0  0  0  0  0  0  0  0  0  0  0
    8.3033  -23.0418   -3.8867 C   0  0  0  0  0  0  0  0  0  0  0  0
    6.9005  -22.0793   -2.0352 C   0  0  0  0  0  0  0  0  0  0  0  0
    4.5487  -21.7419   -7.5338 C   0  0  0  0  0  0  0  0  0  0  0  0
    2.7332  -20.0142   -7.3315 C   0  0  0  0  0  0  0  0  0  0  0  0
    5.9551  -22.1974   -0.9511 C   0  0  0  0  0  0  0  0  0  0  0  0
    6.4501  -23.2277   -5.5110 O   0  0  0  0  0  0  0  0  0  0  0  0
    5.5281  -21.1463   -0.2364 C   0  0  0  0  0  0  0  0  0  0  0  0
    6.9287  -20.9867   -5.4263 O   0  0  0  0  0  0  0  0  0  0  0  0
    0.2115  -19.4776    0.3603 O   0  0  0  0  0  0  0  0  0  0  0  0
    4.5403  -21.2663    0.9000 C   0  0  0  0  0  0  0  0  0  0  0  0
    3.5660  -20.0887    0.9002 C   0  0  0  0  0  0  0  0  0  0  0  0
    2.7454  -19.9771    2.1942 C   0  0  0  0  0  0  0  0  0  0  0  0
    1.6400  -18.8992    2.1837 C   0  0  0  0  0  0  0  0  0  0  0  0
    1.5011  -17.6302    0.0977 N   0  0  0  0  0  0  0  0  0  0  0  0
    1.1137  -17.2544   -1.2622 C   0  0  0  0  0  0  0  0  0  0  0  0
    1.9889  -18.0870   -2.2065 C   0  0  0  0  0  0  0  0  0  0  0  0
    3.1273  -17.7186   -2.4983 O   0  0  0  0  0  0  0  0  0  0  0  0
    1.4582  -19.2247   -2.6425 N   0  0  0  0  0  0  0  0  0  0  0  0
    2.1083  -20.2039   -3.4927 C   0  0  0  0  0  0  0  0  0  0  0  0
    1.8107  -20.0031   -4.9969 C   0  0  0  0  0  0  0  0  0  0  0  0
    0.6755  -19.7335   -5.3684 O   0  0  0  0  0  0  0  0  0  0  0  0
    4.0564  -20.6097   -4.3728 H   0  0  0  0  0  0  0  0  0  0  0  0
    2.1543  -17.0490    0.5501 H   0  0  0  0  0  0  0  0  0  0  0  0
    0.5354  -19.4219   -2.3615 H   0  0  0  0  0  0  0  0  0  0  0  0
    0.9726  -15.7347   -1.5470 C   0  0  0  0  0  0  0  0  0  0  0  0
    0.4063  -14.8934   -0.3898 C   0  0  0  0  0  0  0  0  0  0  0  0
    0.1429  -15.5159   -2.8318 C   0  0  0  0  0  0  0  0  0  0  0  0
    1.5174  -21.5514   -3.0017 C   0  0  0  0  0  0  0  0  0  0  0  0
    2.0257  -22.7746   -3.7528 C   0  0  0  0  0  0  0  0  0  0  0  0
    1.3230  -23.2836   -4.8711 C   0  0  0  0  0  0  0  0  0  0  0  0
    1.8060  -24.4207   -5.5596 C   0  0  0  0  0  0  0  0  0  0  0  0
    3.2160  -23.3959   -3.3332 C   0  0  0  0  0  0  0  0  0  0  0  0
    3.6965  -24.5321   -4.0078 C   0  0  0  0  0  0  0  0  0  0  0  0
    2.9955  -25.0414   -5.1237 C   0  0  0  0  0  0  0  0  0  0  0  0
    4.8473  -25.1235   -3.5736 O   0  0  0  0  0  0  0  0  0  0  0  0
    5.3021  -24.7752   -2.8321 H   0  0  0  0  0  0  0  0  0  0  0  0
 21 20  1  0  0  0
 21  8  1  0  0  0
 20 19  1  0  0  0
 34 33  1  0  0  0
 19 18  1  0  0  0
 22  8  1  0  0  0
 22 23  1  0  0  0
 18 15  1  0  0  0
  8 17  2  0  0  0
 15 13  2  0  0  0
 33 23  1  0  0  0
 33 35  1  0  0  0
 23 24  1  0  0  0
 13 10  1  0  0  0
 25 24  2  0  0  0
 24 26  1  0  0  0
 10  7  2  0  0  0
  7  9  1  0  0  0
 26 27  1  0  0  0
  9  6  1  0  0  0
 27 36  1  0  0  0
 27 28  1  0  0  0
 16  5  2  0  0  0
 36 37  1  0  0  0
  1  3  1  0  0  0
  1  4  1  0  0  0
 38 37  2  0  0  0
 38 39  1  0  0  0
  6 14  1  0  0  0
  5 14  1  0  0  0
  5  4  1  0  0  0
 28  3  1  0  0  0
 28 29  2  0  0  0
 37 40  1  0  0  0
  3 12  1  0  0  0
  4 11  1  0  0  0
 39 42  2  0  0  0
 12  2  1  0  0  0
 40 41  2  0  0  0
 11  2  1  0  0  0
 42 41  1  0  0  0
 41 43  1  0  0  0
  1 30  1  0  0  0
 22 31  1  0  0  0
 26 32  1  0  0  0
 43 44  1  0  0  0
M  END
> <minimizedAffinity>
-6.64490

$$$$
