5I1Q_67C_A_1701


 26 28  0  0  0  0  0  0  0  0999 V2000
  -10.1453   18.9850    5.4869 N   0  0  0  0  0  0  0  0  0  0  0  0
  -11.8525   20.5321    5.6697 O   0  0  0  0  0  0  0  0  0  0  0  0
   -9.8920   22.5647    6.6436 N   0  0  0  0  0  0  0  0  0  0  0  0
   -7.8689   19.4965    6.2657 C   0  0  0  0  0  0  0  0  0  0  0  0
   -8.8610   18.6292    5.6970 C   0  0  0  0  0  0  0  0  0  0  0  0
  -10.6817   20.2979    5.7454 C   0  0  0  0  0  0  0  0  0  0  0  0
   -9.6568   21.2181    6.2666 C   0  0  0  0  0  0  0  0  0  0  0  0
   -8.6918   22.9322    7.0586 C   0  0  0  0  0  0  0  0  0  0  0  0
   -7.6002   22.0489    7.0704 C   0  0  0  0  0  0  0  0  0  0  0  0
   -8.3158   20.8945    6.5117 C   0  0  0  0  0  0  0  0  0  0  0  0
  -10.7260   23.0864    6.6063 H   0  0  0  0  0  0  0  0  0  0  0  0
   -5.0046   17.2387    7.2538 C   0  0  0  0  0  0  0  0  0  0  0  0
   -6.2951   17.7145    6.9744 C   0  0  0  0  0  0  0  0  0  0  0  0
   -6.4821   19.0455    6.4887 C   0  0  0  0  0  0  0  0  0  0  0  0
   -5.3564   19.8470    6.3798 C   0  0  0  0  0  0  0  0  0  0  0  0
   -4.0942   19.3811    6.7235 C   0  0  0  0  0  0  0  0  0  0  0  0
   -3.8776   18.0538    7.1271 C   0  0  0  0  0  0  0  0  0  0  0  0
   -4.5062   13.4645    7.6308 C   0  0  0  0  0  0  0  0  0  0  0  0
   -4.8297   15.8402    7.8217 C   0  0  0  0  0  0  0  0  0  0  0  0
   -5.2140   15.7061    9.0432 O   0  0  0  0  0  0  0  0  0  0  0  0
   -4.4992   14.8526    7.0958 N   0  0  0  0  0  0  0  0  0  0  0  0
   -4.2635   14.9467    5.6347 C   0  0  0  0  0  0  0  0  0  0  0  0
  -11.0568   17.9585    4.8866 C   0  0  0  0  0  0  0  0  0  0  0  0
  -11.5763   17.0998    6.1105 C   0  0  0  0  0  0  0  0  0  0  0  0
  -12.3347   15.9330    5.5461 C   0  0  0  0  0  0  0  0  0  0  0  0
  -11.9188   14.6782    5.6685 C   0  0  0  0  0  0  0  0  0  0  0  0
 23  1  1  0  0  0
 23 24  1  0  0  0
  1  6  1  0  0  0
  1  5  1  0  0  0
  2  6  2  0  0  0
 26 25  2  0  0  0
 25 24  1  0  0  0
  6  7  1  0  0  0
  5  4  2  0  0  0
  7 10  2  0  0  0
  7  3  1  0  0  0
 22 21  1  0  0  0
  4 10  1  0  0  0
  4 14  1  0  0  0
 15 14  2  0  0  0
 15 16  1  0  0  0
 10  9  1  0  0  0
  3  8  1  0  0  0
 14 13  1  0  0  0
 16 17  2  0  0  0
  8  9  2  0  0  0
 13 12  2  0  0  0
 17 12  1  0  0  0
 12 19  1  0  0  0
 21 19  1  0  0  0
 21 18  1  0  0  0
 19 20  2  0  0  0
  3 11  1  0  0  0
M  END
> <minimizedAffinity>
-9.15849

$$$$
5I1Q_67C_A_1701


 26 28  0  0  0  0  0  0  0  0999 V2000
   -8.7403   19.1919    6.6043 N   0  0  0  0  0  0  0  0  0  0  0  0
   -8.7737   21.4741    6.2410 O   0  0  0  0  0  0  0  0  0  0  0  0
   -5.7935   21.4744    6.0360 N   0  0  0  0  0  0  0  0  0  0  0  0
   -6.6211   17.9710    6.8668 C   0  0  0  0  0  0  0  0  0  0  0  0
   -8.0536   18.0530    6.8317 C   0  0  0  0  0  0  0  0  0  0  0  0
   -8.1340   20.4652    6.3051 C   0  0  0  0  0  0  0  0  0  0  0  0
   -6.6641   20.3802    6.2715 C   0  0  0  0  0  0  0  0  0  0  0  0
   -4.6108   20.8922    6.1352 C   0  0  0  0  0  0  0  0  0  0  0  0
   -4.4705   19.5276    6.4356 C   0  0  0  0  0  0  0  0  0  0  0  0
   -5.9059   19.2266    6.5109 C   0  0  0  0  0  0  0  0  0  0  0  0
   -6.0116   22.4160    5.8486 H   0  0  0  0  0  0  0  0  0  0  0  0
   -5.0281   14.6070    6.2152 C   0  0  0  0  0  0  0  0  0  0  0  0
   -5.6448   15.8528    6.0213 C   0  0  0  0  0  0  0  0  0  0  0  0
   -5.9247   16.6992    7.1384 C   0  0  0  0  0  0  0  0  0  0  0  0
   -5.6291   16.2062    8.3998 C   0  0  0  0  0  0  0  0  0  0  0  0
   -5.0796   14.9435    8.5784 C   0  0  0  0  0  0  0  0  0  0  0  0
   -4.7240   14.1286    7.4917 C   0  0  0  0  0  0  0  0  0  0  0  0
   -3.5706   12.9710    3.0794 C   0  0  0  0  0  0  0  0  0  0  0  0
   -4.7885   13.6971    5.0221 C   0  0  0  0  0  0  0  0  0  0  0  0
   -5.8179   13.0191    4.6502 O   0  0  0  0  0  0  0  0  0  0  0  0
   -3.7156   13.7392    4.3450 N   0  0  0  0  0  0  0  0  0  0  0  0
   -2.5991   14.6734    4.6280 C   0  0  0  0  0  0  0  0  0  0  0  0
  -10.2362   19.1078    6.6039 C   0  0  0  0  0  0  0  0  0  0  0  0
  -10.6059   18.3158    5.2843 C   0  0  0  0  0  0  0  0  0  0  0  0
  -11.9027   17.6033    5.5408 C   0  0  0  0  0  0  0  0  0  0  0  0
  -11.9707   16.3007    5.7881 C   0  0  0  0  0  0  0  0  0  0  0  0
 23  1  1  0  0  0
 23 24  1  0  0  0
  1  6  1  0  0  0
  1  5  1  0  0  0
  2  6  2  0  0  0
 26 25  2  0  0  0
 25 24  1  0  0  0
  6  7  1  0  0  0
  5  4  2  0  0  0
  7 10  2  0  0  0
  7  3  1  0  0  0
 22 21  1  0  0  0
  4 10  1  0  0  0
  4 14  1  0  0  0
 15 14  2  0  0  0
 15 16  1  0  0  0
 10  9  1  0  0  0
  3  8  1  0  0  0
 14 13  1  0  0  0
 16 17  2  0  0  0
  8  9  2  0  0  0
 13 12  2  0  0  0
 17 12  1  0  0  0
 12 19  1  0  0  0
 21 19  1  0  0  0
 21 18  1  0  0  0
 19 20  2  0  0  0
  3 11  1  0  0  0
M  END
> <minimizedAffinity>
-8.68208

$$$$
5I1Q_67C_A_1701


 26 28  0  0  0  0  0  0  0  0999 V2000
   -6.1148   16.3489    6.9292 N   0  0  0  0  0  0  0  0  0  0  0  0
   -3.8143   16.5526    7.0170 O   0  0  0  0  0  0  0  0  0  0  0  0
   -4.0682   19.4946    6.5655 N   0  0  0  0  0  0  0  0  0  0  0  0
   -7.5463   18.2659    6.3579 C   0  0  0  0  0  0  0  0  0  0  0  0
   -7.3293   16.8877    6.6946 C   0  0  0  0  0  0  0  0  0  0  0  0
   -4.8793   17.0917    6.9353 C   0  0  0  0  0  0  0  0  0  0  0  0
   -5.0956   18.5216    6.6574 C   0  0  0  0  0  0  0  0  0  0  0  0
   -4.7641   20.5820    6.2806 C   0  0  0  0  0  0  0  0  0  0  0  0
   -6.1592   20.5581    6.1212 C   0  0  0  0  0  0  0  0  0  0  0  0
   -6.3326   19.1262    6.3973 C   0  0  0  0  0  0  0  0  0  0  0  0
   -3.0965   19.3887    6.6825 H   0  0  0  0  0  0  0  0  0  0  0  0
  -11.2627   18.2807    5.6753 C   0  0  0  0  0  0  0  0  0  0  0  0
   -9.9613   17.8481    5.9738 C   0  0  0  0  0  0  0  0  0  0  0  0
   -8.8978   18.7951    6.0942 C   0  0  0  0  0  0  0  0  0  0  0  0
   -9.1967   20.1238    5.8351 C   0  0  0  0  0  0  0  0  0  0  0  0
  -10.4763   20.5262    5.4761 C   0  0  0  0  0  0  0  0  0  0  0  0
  -11.5519   19.6248    5.4293 C   0  0  0  0  0  0  0  0  0  0  0  0
  -14.6726   16.5734    5.3705 C   0  0  0  0  0  0  0  0  0  0  0  0
  -12.3694   17.2549    5.4966 C   0  0  0  0  0  0  0  0  0  0  0  0
  -12.0004   16.0334    5.6683 O   0  0  0  0  0  0  0  0  0  0  0  0
  -13.5867   17.5902    5.3654 N   0  0  0  0  0  0  0  0  0  0  0  0
  -14.0606   18.9953    5.3844 C   0  0  0  0  0  0  0  0  0  0  0  0
   -6.0601   14.8900    7.2660 C   0  0  0  0  0  0  0  0  0  0  0  0
   -6.2457   14.1391    5.8851 C   0  0  0  0  0  0  0  0  0  0  0  0
   -4.9452   13.4575    5.5702 C   0  0  0  0  0  0  0  0  0  0  0  0
   -4.0984   13.9124    4.6545 C   0  0  0  0  0  0  0  0  0  0  0  0
 23  1  1  0  0  0
 23 24  1  0  0  0
  1  6  1  0  0  0
  1  5  1  0  0  0
  2  6  2  0  0  0
 26 25  2  0  0  0
 25 24  1  0  0  0
  6  7  1  0  0  0
  5  4  2  0  0  0
  7 10  2  0  0  0
  7  3  1  0  0  0
 22 21  1  0  0  0
  4 10  1  0  0  0
  4 14  1  0  0  0
 15 14  2  0  0  0
 15 16  1  0  0  0
 10  9  1  0  0  0
  3  8  1  0  0  0
 14 13  1  0  0  0
 16 17  2  0  0  0
  8  9  2  0  0  0
 13 12  2  0  0  0
 17 12  1  0  0  0
 12 19  1  0  0  0
 21 19  1  0  0  0
 21 18  1  0  0  0
 19 20  2  0  0  0
  3 11  1  0  0  0
M  END
> <minimizedAffinity>
-7.80819

$$$$
5I1Q_67C_A_1701


 26 28  0  0  0  0  0  0  0  0999 V2000
   -7.0406   19.2663    6.2749 N   0  0  0  0  0  0  0  0  0  0  0  0
   -6.6063   21.5341    6.1758 O   0  0  0  0  0  0  0  0  0  0  0  0
   -3.7193   20.9943    6.7211 N   0  0  0  0  0  0  0  0  0  0  0  0
   -5.2939   17.6579    6.9169 C   0  0  0  0  0  0  0  0  0  0  0  0
   -6.6328   18.0069    6.5356 C   0  0  0  0  0  0  0  0  0  0  0  0
   -6.1787   20.4219    6.2825 C   0  0  0  0  0  0  0  0  0  0  0  0
   -4.7865   20.0676    6.6067 C   0  0  0  0  0  0  0  0  0  0  0  0
   -2.7158   20.1970    7.0452 C   0  0  0  0  0  0  0  0  0  0  0  0
   -2.8832   18.8130    7.2145 C   0  0  0  0  0  0  0  0  0  0  0  0
   -4.3163   18.7797    6.8951 C   0  0  0  0  0  0  0  0  0  0  0  0
   -3.7243   21.9704    6.5933 H   0  0  0  0  0  0  0  0  0  0  0  0
   -4.1652   14.1041    6.3042 C   0  0  0  0  0  0  0  0  0  0  0  0
   -4.4972   15.4532    6.1049 C   0  0  0  0  0  0  0  0  0  0  0  0
   -4.9101   16.2634    7.2074 C   0  0  0  0  0  0  0  0  0  0  0  0
   -5.0329   15.6438    8.4414 C   0  0  0  0  0  0  0  0  0  0  0  0
   -4.7637   14.2917    8.6079 C   0  0  0  0  0  0  0  0  0  0  0  0
   -4.2813   13.4962    7.5563 C   0  0  0  0  0  0  0  0  0  0  0  0
   -2.2210   12.3564    3.5113 C   0  0  0  0  0  0  0  0  0  0  0  0
   -3.7817   13.2441    5.1117 C   0  0  0  0  0  0  0  0  0  0  0  0
   -4.7712   12.8828    4.3715 O   0  0  0  0  0  0  0  0  0  0  0  0
   -2.5719   13.0506    4.7794 N   0  0  0  0  0  0  0  0  0  0  0  0
   -1.4161   13.6419    5.4962 C   0  0  0  0  0  0  0  0  0  0  0  0
   -8.4759   19.4620    5.8922 C   0  0  0  0  0  0  0  0  0  0  0  0
   -9.2736   19.4540    7.2592 C   0  0  0  0  0  0  0  0  0  0  0  0
  -10.2157   20.6231    7.2322 C   0  0  0  0  0  0  0  0  0  0  0  0
  -10.0969   21.6223    6.3662 C   0  0  0  0  0  0  0  0  0  0  0  0
 23  1  1  0  0  0
 23 24  1  0  0  0
  1  6  1  0  0  0
  1  5  1  0  0  0
  2  6  2  0  0  0
 26 25  2  0  0  0
 25 24  1  0  0  0
  6  7  1  0  0  0
  5  4  2  0  0  0
  7 10  2  0  0  0
  7  3  1  0  0  0
 22 21  1  0  0  0
  4 10  1  0  0  0
  4 14  1  0  0  0
 15 14  2  0  0  0
 15 16  1  0  0  0
 10  9  1  0  0  0
  3  8  1  0  0  0
 14 13  1  0  0  0
 16 17  2  0  0  0
  8  9  2  0  0  0
 13 12  2  0  0  0
 17 12  1  0  0  0
 12 19  1  0  0  0
 21 19  1  0  0  0
 21 18  1  0  0  0
 19 20  2  0  0  0
  3 11  1  0  0  0
M  END
> <minimizedAffinity>
-7.79805

$$$$
5I1Q_67C_A_1701


 26 28  0  0  0  0  0  0  0  0999 V2000
   -8.8416   20.4406    6.2391 N   0  0  0  0  0  0  0  0  0  0  0  0
   -9.8697   22.4736    6.6280 O   0  0  0  0  0  0  0  0  0  0  0  0
   -7.2070   23.6969    7.2092 N   0  0  0  0  0  0  0  0  0  0  0  0
   -6.4338   20.1301    6.6347 C   0  0  0  0  0  0  0  0  0  0  0  0
   -7.7384   19.6640    6.2598 C   0  0  0  0  0  0  0  0  0  0  0  0
   -8.8518   21.8527    6.5292 C   0  0  0  0  0  0  0  0  0  0  0  0
   -7.5063   22.3581    6.8502 C   0  0  0  0  0  0  0  0  0  0  0  0
   -5.9037   23.6251    7.4185 C   0  0  0  0  0  0  0  0  0  0  0  0
   -5.1899   22.4223    7.2929 C   0  0  0  0  0  0  0  0  0  0  0  0
   -6.3342   21.5919    6.8955 C   0  0  0  0  0  0  0  0  0  0  0  0
   -7.8089   24.4725    7.2828 H   0  0  0  0  0  0  0  0  0  0  0  0
   -4.4316   16.9522    7.0466 C   0  0  0  0  0  0  0  0  0  0  0  0
   -5.5040   17.8536    6.9625 C   0  0  0  0  0  0  0  0  0  0  0  0
   -5.2661   19.2290    6.6557 C   0  0  0  0  0  0  0  0  0  0  0  0
   -3.9464   19.6315    6.5207 C   0  0  0  0  0  0  0  0  0  0  0  0
   -2.8933   18.7393    6.6725 C   0  0  0  0  0  0  0  0  0  0  0  0
   -3.1074   17.3697    6.8954 C   0  0  0  0  0  0  0  0  0  0  0  0
   -5.1676   13.1999    6.9303 C   0  0  0  0  0  0  0  0  0  0  0  0
   -4.6983   15.5057    7.4281 C   0  0  0  0  0  0  0  0  0  0  0  0
   -5.0617   15.3326    8.6511 O   0  0  0  0  0  0  0  0  0  0  0  0
   -4.7311   14.5746    6.5660 N   0  0  0  0  0  0  0  0  0  0  0  0
   -4.5296   14.7902    5.1126 C   0  0  0  0  0  0  0  0  0  0  0  0
  -10.1306   19.7981    5.8263 C   0  0  0  0  0  0  0  0  0  0  0  0
   -9.9123   18.2473    6.0559 C   0  0  0  0  0  0  0  0  0  0  0  0
  -11.1952   17.5578    5.6900 C   0  0  0  0  0  0  0  0  0  0  0  0
  -12.3612   18.1903    5.6355 C   0  0  0  0  0  0  0  0  0  0  0  0
 23  1  1  0  0  0
 23 24  1  0  0  0
  1  6  1  0  0  0
  1  5  1  0  0  0
  2  6  2  0  0  0
 26 25  2  0  0  0
 25 24  1  0  0  0
  6  7  1  0  0  0
  5  4  2  0  0  0
  7 10  2  0  0  0
  7  3  1  0  0  0
 22 21  1  0  0  0
  4 10  1  0  0  0
  4 14  1  0  0  0
 15 14  2  0  0  0
 15 16  1  0  0  0
 10  9  1  0  0  0
  3  8  1  0  0  0
 14 13  1  0  0  0
 16 17  2  0  0  0
  8  9  2  0  0  0
 13 12  2  0  0  0
 17 12  1  0  0  0
 12 19  1  0  0  0
 21 19  1  0  0  0
 21 18  1  0  0  0
 19 20  2  0  0  0
  3 11  1  0  0  0
M  END
> <minimizedAffinity>
-7.23661

$$$$
5I1Q_67C_A_1701


 26 28  0  0  0  0  0  0  0  0999 V2000
   -7.0806   19.1832    6.2552 N   0  0  0  0  0  0  0  0  0  0  0  0
   -8.9937   17.9358    5.9009 O   0  0  0  0  0  0  0  0  0  0  0  0
   -7.5432   15.4792    6.7868 N   0  0  0  0  0  0  0  0  0  0  0  0
   -4.9537   18.1129    6.8726 C   0  0  0  0  0  0  0  0  0  0  0  0
   -5.7648   19.2510    6.5459 C   0  0  0  0  0  0  0  0  0  0  0  0
   -7.8640   17.9736    6.2928 C   0  0  0  0  0  0  0  0  0  0  0  0
   -7.0574   16.8080    6.6928 C   0  0  0  0  0  0  0  0  0  0  0  0
   -6.4505   14.8272    7.1454 C   0  0  0  0  0  0  0  0  0  0  0  0
   -5.2134   15.4715    7.3084 C   0  0  0  0  0  0  0  0  0  0  0  0
   -5.6891   16.8247    6.9935 C   0  0  0  0  0  0  0  0  0  0  0  0
   -8.4515   15.1343    6.6275 H   0  0  0  0  0  0  0  0  0  0  0  0
   -1.7000   19.7069    7.9453 C   0  0  0  0  0  0  0  0  0  0  0  0
   -3.0641   19.4965    7.6910 C   0  0  0  0  0  0  0  0  0  0  0  0
   -3.5138   18.2463    7.1645 C   0  0  0  0  0  0  0  0  0  0  0  0
   -2.5476   17.3011    6.8569 C   0  0  0  0  0  0  0  0  0  0  0  0
   -1.1957   17.5505    7.0532 C   0  0  0  0  0  0  0  0  0  0  0  0
   -0.7385   18.7402    7.6423 C   0  0  0  0  0  0  0  0  0  0  0  0
   -0.4098   23.3018    8.1610 C   0  0  0  0  0  0  0  0  0  0  0  0
   -1.2338   21.0612    8.4528 C   0  0  0  0  0  0  0  0  0  0  0  0
   -0.8903   21.0790    9.6935 O   0  0  0  0  0  0  0  0  0  0  0  0
   -1.0337   22.0426    7.6730 N   0  0  0  0  0  0  0  0  0  0  0  0
   -1.2158   21.9768    6.2027 C   0  0  0  0  0  0  0  0  0  0  0  0
   -7.7831   20.4663    5.9314 C   0  0  0  0  0  0  0  0  0  0  0  0
   -8.6222   20.8172    7.2267 C   0  0  0  0  0  0  0  0  0  0  0  0
   -9.9144   21.4296    6.7682 C   0  0  0  0  0  0  0  0  0  0  0  0
  -10.4981   21.1024    5.6216 C   0  0  0  0  0  0  0  0  0  0  0  0
 23  1  1  0  0  0
 23 24  1  0  0  0
  1  6  1  0  0  0
  1  5  1  0  0  0
  2  6  2  0  0  0
 26 25  2  0  0  0
 25 24  1  0  0  0
  6  7  1  0  0  0
  5  4  2  0  0  0
  7 10  2  0  0  0
  7  3  1  0  0  0
 22 21  1  0  0  0
  4 10  1  0  0  0
  4 14  1  0  0  0
 15 14  2  0  0  0
 15 16  1  0  0  0
 10  9  1  0  0  0
  3  8  1  0  0  0
 14 13  1  0  0  0
 16 17  2  0  0  0
  8  9  2  0  0  0
 13 12  2  0  0  0
 17 12  1  0  0  0
 12 19  1  0  0  0
 21 19  1  0  0  0
 21 18  1  0  0  0
 19 20  2  0  0  0
  3 11  1  0  0  0
M  END
> <minimizedAffinity>
-7.16017

$$$$
5I1Q_67C_A_1701


 26 28  0  0  0  0  0  0  0  0999 V2000
   -3.8551   20.2778    6.9285 N   0  0  0  0  0  0  0  0  0  0  0  0
   -5.0041   22.0826    6.0546 O   0  0  0  0  0  0  0  0  0  0  0  0
   -7.4028   20.3479    5.6537 N   0  0  0  0  0  0  0  0  0  0  0  0
   -4.8351   18.0217    6.9362 C   0  0  0  0  0  0  0  0  0  0  0  0
   -3.7791   18.9578    7.1977 C   0  0  0  0  0  0  0  0  0  0  0  0
   -5.0234   20.9378    6.4015 C   0  0  0  0  0  0  0  0  0  0  0  0
   -6.1382   19.9986    6.1916 C   0  0  0  0  0  0  0  0  0  0  0  0
   -8.0151   19.1763    5.6460 C   0  0  0  0  0  0  0  0  0  0  0  0
   -7.3835   17.9981    6.0761 C   0  0  0  0  0  0  0  0  0  0  0  0
   -6.1056   18.6209    6.4447 C   0  0  0  0  0  0  0  0  0  0  0  0
   -7.7359   21.2278    5.3636 H   0  0  0  0  0  0  0  0  0  0  0  0
   -4.1297   14.3516    6.3784 C   0  0  0  0  0  0  0  0  0  0  0  0
   -4.2448   15.7355    6.1749 C   0  0  0  0  0  0  0  0  0  0  0  0
   -4.6878   16.5847    7.2356 C   0  0  0  0  0  0  0  0  0  0  0  0
   -5.0587   15.9765    8.4248 C   0  0  0  0  0  0  0  0  0  0  0  0
   -5.0013   14.5986    8.5873 C   0  0  0  0  0  0  0  0  0  0  0  0
   -4.4950   13.7538    7.5867 C   0  0  0  0  0  0  0  0  0  0  0  0
   -2.0960   12.4976    3.7211 C   0  0  0  0  0  0  0  0  0  0  0  0
   -3.7104   13.4580    5.2231 C   0  0  0  0  0  0  0  0  0  0  0  0
   -4.6709   13.1081    4.4405 O   0  0  0  0  0  0  0  0  0  0  0  0
   -2.4911   13.2260    4.9565 N   0  0  0  0  0  0  0  0  0  0  0  0
   -1.3572   13.8010    5.7200 C   0  0  0  0  0  0  0  0  0  0  0  0
   -2.6609   21.1198    7.2594 C   0  0  0  0  0  0  0  0  0  0  0  0
   -1.7237   20.1857    8.1280 C   0  0  0  0  0  0  0  0  0  0  0  0
   -0.8893   21.0791    9.0003 C   0  0  0  0  0  0  0  0  0  0  0  0
   -0.2214   20.6322   10.0570 C   0  0  0  0  0  0  0  0  0  0  0  0
 23  1  1  0  0  0
 23 24  1  0  0  0
  1  6  1  0  0  0
  1  5  1  0  0  0
  2  6  2  0  0  0
 26 25  2  0  0  0
 25 24  1  0  0  0
  6  7  1  0  0  0
  5  4  2  0  0  0
  7 10  2  0  0  0
  7  3  1  0  0  0
 22 21  1  0  0  0
  4 10  1  0  0  0
  4 14  1  0  0  0
 15 14  2  0  0  0
 15 16  1  0  0  0
 10  9  1  0  0  0
  3  8  1  0  0  0
 14 13  1  0  0  0
 16 17  2  0  0  0
  8  9  2  0  0  0
 13 12  2  0  0  0
 17 12  1  0  0  0
 12 19  1  0  0  0
 21 19  1  0  0  0
 21 18  1  0  0  0
 19 20  2  0  0  0
  3 11  1  0  0  0
M  END
> <minimizedAffinity>
-7.09376

$$$$
5I1Q_67C_A_1701


 26 28  0  0  0  0  0  0  0  0999 V2000
   -7.0381   22.7829    7.2702 N   0  0  0  0  0  0  0  0  0  0  0  0
   -9.1922   23.4722    6.7946 O   0  0  0  0  0  0  0  0  0  0  0  0
   -9.8636   20.7084    5.8810 N   0  0  0  0  0  0  0  0  0  0  0  0
   -6.2654   20.5190    6.6972 C   0  0  0  0  0  0  0  0  0  0  0  0
   -6.0735   21.8408    7.2227 C   0  0  0  0  0  0  0  0  0  0  0  0
   -8.4042   22.5744    6.8594 C   0  0  0  0  0  0  0  0  0  0  0  0
   -8.6310   21.2003    6.3805 C   0  0  0  0  0  0  0  0  0  0  0  0
   -9.5401   19.4656    5.5672 C   0  0  0  0  0  0  0  0  0  0  0  0
   -8.2389   18.9650    5.7358 C   0  0  0  0  0  0  0  0  0  0  0  0
   -7.6621   20.1913    6.3017 C   0  0  0  0  0  0  0  0  0  0  0  0
  -10.7290   21.1693    5.7918 H   0  0  0  0  0  0  0  0  0  0  0  0
   -4.4772   17.2050    7.0098 C   0  0  0  0  0  0  0  0  0  0  0  0
   -5.4848   18.1817    6.9836 C   0  0  0  0  0  0  0  0  0  0  0  0
   -5.1667   19.5356    6.6548 C   0  0  0  0  0  0  0  0  0  0  0  0
   -3.8317   19.8411    6.4395 C   0  0  0  0  0  0  0  0  0  0  0  0
   -2.8387   18.8751    6.5343 C   0  0  0  0  0  0  0  0  0  0  0  0
   -3.1376   17.5251    6.7780 C   0  0  0  0  0  0  0  0  0  0  0  0
   -5.5129   13.5226    6.9633 C   0  0  0  0  0  0  0  0  0  0  0  0
   -4.8247   15.7824    7.4154 C   0  0  0  0  0  0  0  0  0  0  0  0
   -5.0992   15.6335    8.6645 O   0  0  0  0  0  0  0  0  0  0  0  0
   -5.0010   14.8602    6.5611 N   0  0  0  0  0  0  0  0  0  0  0  0
   -4.9029   15.0653    5.0956 C   0  0  0  0  0  0  0  0  0  0  0  0
   -6.6731   24.1164    7.8473 C   0  0  0  0  0  0  0  0  0  0  0  0
   -6.3223   23.8292    9.3638 C   0  0  0  0  0  0  0  0  0  0  0  0
   -7.1149   24.7964   10.1953 C   0  0  0  0  0  0  0  0  0  0  0  0
   -8.3800   25.1018    9.9327 C   0  0  0  0  0  0  0  0  0  0  0  0
 23  1  1  0  0  0
 23 24  1  0  0  0
  1  6  1  0  0  0
  1  5  1  0  0  0
  2  6  2  0  0  0
 26 25  2  0  0  0
 25 24  1  0  0  0
  6  7  1  0  0  0
  5  4  2  0  0  0
  7 10  2  0  0  0
  7  3  1  0  0  0
 22 21  1  0  0  0
  4 10  1  0  0  0
  4 14  1  0  0  0
 15 14  2  0  0  0
 15 16  1  0  0  0
 10  9  1  0  0  0
  3  8  1  0  0  0
 14 13  1  0  0  0
 16 17  2  0  0  0
  8  9  2  0  0  0
 13 12  2  0  0  0
 17 12  1  0  0  0
 12 19  1  0  0  0
 21 19  1  0  0  0
 21 18  1  0  0  0
 19 20  2  0  0  0
  3 11  1  0  0  0
M  END
> <minimizedAffinity>
-6.83692

$$$$
5I1Q_67C_A_1701


 26 28  0  0  0  0  0  0  0  0999 V2000
   -6.4581   16.7117    6.7582 N   0  0  0  0  0  0  0  0  0  0  0  0
   -7.7524   14.8152    7.0217 O   0  0  0  0  0  0  0  0  0  0  0  0
   -5.2768   13.1971    7.4430 N   0  0  0  0  0  0  0  0  0  0  0  0
   -4.0022   16.5848    6.7023 C   0  0  0  0  0  0  0  0  0  0  0  0
   -5.2479   17.2941    6.6295 C   0  0  0  0  0  0  0  0  0  0  0  0
   -6.6655   15.3146    7.0469 C   0  0  0  0  0  0  0  0  0  0  0  0
   -5.3928   14.5877    7.1910 C   0  0  0  0  0  0  0  0  0  0  0  0
   -3.9639   13.0433    7.4548 C   0  0  0  0  0  0  0  0  0  0  0  0
   -3.0823   14.1115    7.2230 C   0  0  0  0  0  0  0  0  0  0  0  0
   -4.1137   15.1436    7.0562 C   0  0  0  0  0  0  0  0  0  0  0  0
   -5.9848   12.5258    7.5742 H   0  0  0  0  0  0  0  0  0  0  0  0
   -1.1505   18.9626    7.4036 C   0  0  0  0  0  0  0  0  0  0  0  0
   -2.3453   18.2367    7.5273 C   0  0  0  0  0  0  0  0  0  0  0  0
   -2.7083   17.2733    6.5359 C   0  0  0  0  0  0  0  0  0  0  0  0
   -1.8750   17.1485    5.4351 C   0  0  0  0  0  0  0  0  0  0  0  0
   -0.7304   17.9223    5.2961 C   0  0  0  0  0  0  0  0  0  0  0  0
   -0.3138   18.8170    6.2948 C   0  0  0  0  0  0  0  0  0  0  0  0
   -0.7495   22.2774    9.2706 C   0  0  0  0  0  0  0  0  0  0  0  0
   -0.8083   20.0218    8.4380 C   0  0  0  0  0  0  0  0  0  0  0  0
    0.0833   19.6647    9.2955 O   0  0  0  0  0  0  0  0  0  0  0  0
   -1.2364   21.2137    8.3517 N   0  0  0  0  0  0  0  0  0  0  0  0
   -2.0930   21.7031    7.2445 C   0  0  0  0  0  0  0  0  0  0  0  0
   -7.6639   17.5947    6.6533 C   0  0  0  0  0  0  0  0  0  0  0  0
   -7.2483   18.7453    5.6490 C   0  0  0  0  0  0  0  0  0  0  0  0
   -8.3676   19.7463    5.6305 C   0  0  0  0  0  0  0  0  0  0  0  0
   -8.3885   20.8161    6.4164 C   0  0  0  0  0  0  0  0  0  0  0  0
 23  1  1  0  0  0
 23 24  1  0  0  0
  1  6  1  0  0  0
  1  5  1  0  0  0
  2  6  2  0  0  0
 26 25  2  0  0  0
 25 24  1  0  0  0
  6  7  1  0  0  0
  5  4  2  0  0  0
  7 10  2  0  0  0
  7  3  1  0  0  0
 22 21  1  0  0  0
  4 10  1  0  0  0
  4 14  1  0  0  0
 15 14  2  0  0  0
 15 16  1  0  0  0
 10  9  1  0  0  0
  3  8  1  0  0  0
 14 13  1  0  0  0
 16 17  2  0  0  0
  8  9  2  0  0  0
 13 12  2  0  0  0
 17 12  1  0  0  0
 12 19  1  0  0  0
 21 19  1  0  0  0
 21 18  1  0  0  0
 19 20  2  0  0  0
  3 11  1  0  0  0
M  END
> <minimizedAffinity>
-6.81216

$$$$
5I1Q_67C_A_1701


 26 28  0  0  0  0  0  0  0  0999 V2000
   -5.3797   16.8414    7.1413 N   0  0  0  0  0  0  0  0  0  0  0  0
   -7.1840   15.3998    7.0545 O   0  0  0  0  0  0  0  0  0  0  0  0
   -8.8832   17.6082    5.9775 N   0  0  0  0  0  0  0  0  0  0  0  0
   -5.6307   19.2344    6.6302 C   0  0  0  0  0  0  0  0  0  0  0  0
   -4.8692   18.0854    7.0300 C   0  0  0  0  0  0  0  0  0  0  0  0
   -6.7380   16.4841    6.8162 C   0  0  0  0  0  0  0  0  0  0  0  0
   -7.5127   17.6424    6.3399 C   0  0  0  0  0  0  0  0  0  0  0  0
   -9.0997   18.8726    5.6582 C   0  0  0  0  0  0  0  0  0  0  0  0
   -8.0974   19.8516    5.7535 C   0  0  0  0  0  0  0  0  0  0  0  0
   -7.0324   18.9529    6.2172 C   0  0  0  0  0  0  0  0  0  0  0  0
   -9.5067   16.8464    5.9667 H   0  0  0  0  0  0  0  0  0  0  0  0
   -5.2954   22.9871    6.9183 C   0  0  0  0  0  0  0  0  0  0  0  0
   -5.7957   21.6795    7.0162 C   0  0  0  0  0  0  0  0  0  0  0  0
   -5.0215   20.5751    6.5435 C   0  0  0  0  0  0  0  0  0  0  0  0
   -3.8111   20.8623    5.9317 C   0  0  0  0  0  0  0  0  0  0  0  0
   -3.3611   22.1676    5.7838 C   0  0  0  0  0  0  0  0  0  0  0  0
   -4.0678   23.2604    6.3108 C   0  0  0  0  0  0  0  0  0  0  0  0
   -7.1849   25.5436    9.0465 C   0  0  0  0  0  0  0  0  0  0  0  0
   -6.1556   24.1534    7.3754 C   0  0  0  0  0  0  0  0  0  0  0  0
   -6.9533   24.6152    6.4765 O   0  0  0  0  0  0  0  0  0  0  0  0
   -6.2067   24.5201    8.5896 N   0  0  0  0  0  0  0  0  0  0  0  0
   -5.4567   23.8557    9.6830 C   0  0  0  0  0  0  0  0  0  0  0  0
   -4.4497   15.7496    7.5746 C   0  0  0  0  0  0  0  0  0  0  0  0
   -3.2127   15.8451    6.5917 C   0  0  0  0  0  0  0  0  0  0  0  0
   -3.2538   14.6340    5.7048 C   0  0  0  0  0  0  0  0  0  0  0  0
   -4.2646   14.3788    4.8827 C   0  0  0  0  0  0  0  0  0  0  0  0
 23  1  1  0  0  0
 23 24  1  0  0  0
  1  6  1  0  0  0
  1  5  1  0  0  0
  2  6  2  0  0  0
 26 25  2  0  0  0
 25 24  1  0  0  0
  6  7  1  0  0  0
  5  4  2  0  0  0
  7 10  2  0  0  0
  7  3  1  0  0  0
 22 21  1  0  0  0
  4 10  1  0  0  0
  4 14  1  0  0  0
 15 14  2  0  0  0
 15 16  1  0  0  0
 10  9  1  0  0  0
  3  8  1  0  0  0
 14 13  1  0  0  0
 16 17  2  0  0  0
  8  9  2  0  0  0
 13 12  2  0  0  0
 17 12  1  0  0  0
 12 19  1  0  0  0
 21 19  1  0  0  0
 21 18  1  0  0  0
 19 20  2  0  0  0
  3 11  1  0  0  0
M  END
> <minimizedAffinity>
-6.64157

$$$$
