4GZP_G39_A_512


 24 24  0  0  0  0  0  0  0  0999 V2000
   26.7374  -10.7627   16.3343 C   0  0  0  0  0  0  0  0  0  0  0  0
   27.2658   -9.3438   16.1097 C   0  0  0  0  0  0  0  0  0  0  0  0
   26.9202   -8.9415   14.6507 C   0  0  0  0  0  0  0  0  0  0  0  0
   25.4436   -9.1461   14.4265 C   0  0  0  0  0  0  0  0  0  0  0  0
   25.1448  -10.6246   14.4309 C   0  0  0  0  0  0  0  0  0  0  0  0
   25.6357  -11.2250   15.7263 C   0  0  0  0  0  0  0  0  0  0  0  0
   27.0823   -7.5287   14.4305 N   0  0  0  0  0  0  0  0  0  0  0  0
   26.4576   -7.0139   15.0512 H   0  0  0  0  0  0  0  0  0  0  0  0
   26.8561   -7.3076   13.4608 H   0  0  0  0  0  0  0  0  0  0  0  0
   24.9959   -8.5213   13.1859 N   0  0  0  0  0  0  0  0  0  0  0  0
   23.9632   -7.6678   13.2389 C   0  0  0  0  0  0  0  0  0  0  0  0
   23.3235   -7.4571   14.2697 O   0  0  0  0  0  0  0  0  0  0  0  0
   23.5892   -6.9910   11.9882 C   0  0  0  0  0  0  0  0  0  0  0  0
   25.4412   -8.7217   12.3311 H   0  0  0  0  0  0  0  0  0  0  0  0
   27.5009  -11.6675   17.1576 C   0  0  0  0  0  0  0  0  0  0  0  0
   27.2124  -12.9135   17.2645 O   0  0  0  0  0  0  0  0  0  0  0  0
   28.4780  -11.1050   17.6732 O   0  0  0  0  0  0  0  0  0  0  0  0
   28.6128  -10.1870   17.5426 H   0  0  0  0  0  0  0  0  0  0  0  0
   23.7086  -10.7275   14.4262 O   0  0  0  0  0  0  0  0  0  0  0  0
   23.1247  -11.2172   15.6652 C   0  0  0  0  0  0  0  0  0  0  0  0
   22.3689  -10.0650   16.3222 C   0  0  0  0  0  0  0  0  0  0  0  0
   22.8240   -9.8187   17.7474 C   0  0  0  0  0  0  0  0  0  0  0  0
   22.0887  -12.3157   15.3752 C   0  0  0  0  0  0  0  0  0  0  0  0
   22.7678  -13.6436   15.0810 C   0  0  0  0  0  0  0  0  0  0  0  0
 15 16  2  0  0  0
 15 17  1  0  0  0
 15  1  1  0  0  0
  1  2  1  0  0  0
  1  6  2  0  0  0
  2  3  1  0  0  0
  3  4  1  0  0  0
  3  7  1  0  0  0
  4 10  1  0  0  0
  4  5  1  0  0  0
 10 11  1  0  0  0
 11 12  2  0  0  0
 11 13  1  0  0  0
  5  6  1  0  0  0
  5 19  1  0  0  0
 19 20  1  0  0  0
 20 21  1  0  0  0
 20 23  1  0  0  0
 21 22  1  0  0  0
 23 24  1  0  0  0
 17 18  1  0  0  0
 10 14  1  0  0  0
  7  8  1  0  0  0
  7  9  1  0  0  0
M  END
> <minimizedAffinity>
-7.19918

$$$$
4GZP_G39_A_512


 24 24  0  0  0  0  0  0  0  0999 V2000
   24.8688   -7.3051   13.1022 C   0  0  0  0  0  0  0  0  0  0  0  0
   26.3638   -7.6147   13.2111 C   0  0  0  0  0  0  0  0  0  0  0  0
   26.5971   -8.3220   14.5731 C   0  0  0  0  0  0  0  0  0  0  0  0
   25.6631   -9.5009   14.6754 C   0  0  0  0  0  0  0  0  0  0  0  0
   24.2479   -8.9977   14.8134 C   0  0  0  0  0  0  0  0  0  0  0  0
   23.9297   -8.0895   13.6500 C   0  0  0  0  0  0  0  0  0  0  0  0
   27.8956   -8.9383   14.6428 N   0  0  0  0  0  0  0  0  0  0  0  0
   27.9777   -9.6420   13.9091 H   0  0  0  0  0  0  0  0  0  0  0  0
   28.0130   -9.3817   15.5539 H   0  0  0  0  0  0  0  0  0  0  0  0
   26.0219  -10.3771   15.7859 N   0  0  0  0  0  0  0  0  0  0  0  0
   26.2474  -11.6733   15.5276 C   0  0  0  0  0  0  0  0  0  0  0  0
   26.0796  -12.1711   14.4140 O   0  0  0  0  0  0  0  0  0  0  0  0
   26.6883  -12.5130   16.6513 C   0  0  0  0  0  0  0  0  0  0  0  0
   26.0966  -10.0251   16.7022 H   0  0  0  0  0  0  0  0  0  0  0  0
   24.4566   -6.0777   12.4673 C   0  0  0  0  0  0  0  0  0  0  0  0
   25.1448   -5.5144   11.5421 O   0  0  0  0  0  0  0  0  0  0  0  0
   23.3516   -5.6963   12.8802 O   0  0  0  0  0  0  0  0  0  0  0  0
   22.9174   -6.1697   13.5624 H   0  0  0  0  0  0  0  0  0  0  0  0
   23.4109  -10.1629   14.6908 O   0  0  0  0  0  0  0  0  0  0  0  0
   22.3167  -10.2354   15.6464 C   0  0  0  0  0  0  0  0  0  0  0  0
   22.5894   -9.2258   16.7585 C   0  0  0  0  0  0  0  0  0  0  0  0
   22.9829   -9.8976   18.0596 C   0  0  0  0  0  0  0  0  0  0  0  0
   20.9942   -9.8150   14.9839 C   0  0  0  0  0  0  0  0  0  0  0  0
   20.9350  -10.2807   13.5380 C   0  0  0  0  0  0  0  0  0  0  0  0
 15 16  2  0  0  0
 15 17  1  0  0  0
 15  1  1  0  0  0
  1  2  1  0  0  0
  1  6  2  0  0  0
  2  3  1  0  0  0
  3  4  1  0  0  0
  3  7  1  0  0  0
  4 10  1  0  0  0
  4  5  1  0  0  0
 10 11  1  0  0  0
 11 12  2  0  0  0
 11 13  1  0  0  0
  5  6  1  0  0  0
  5 19  1  0  0  0
 19 20  1  0  0  0
 20 21  1  0  0  0
 20 23  1  0  0  0
 21 22  1  0  0  0
 23 24  1  0  0  0
 17 18  1  0  0  0
 10 14  1  0  0  0
  7  8  1  0  0  0
  7  9  1  0  0  0
M  END
> <minimizedAffinity>
-6.46701

$$$$
4GZP_G39_A_512


 24 24  0  0  0  0  0  0  0  0999 V2000
   25.4694   -8.1810   13.5410 C   0  0  0  0  0  0  0  0  0  0  0  0
   24.1193   -8.3975   12.8532 C   0  0  0  0  0  0  0  0  0  0  0  0
   23.8981   -9.9290   12.7283 C   0  0  0  0  0  0  0  0  0  0  0  0
   24.0611  -10.5565   14.0893 C   0  0  0  0  0  0  0  0  0  0  0  0
   25.5103  -10.4740   14.4995 C   0  0  0  0  0  0  0  0  0  0  0  0
   25.9560   -9.0322   14.4552 C   0  0  0  0  0  0  0  0  0  0  0  0
   22.5362  -10.2493   12.3917 N   0  0  0  0  0  0  0  0  0  0  0  0
   21.9149   -9.9041   13.1234 H   0  0  0  0  0  0  0  0  0  0  0  0
   22.4352  -11.2609   12.3093 H   0  0  0  0  0  0  0  0  0  0  0  0
   23.5860  -11.9363   14.1062 N   0  0  0  0  0  0  0  0  0  0  0  0
   22.7044  -12.2951   15.0504 C   0  0  0  0  0  0  0  0  0  0  0  0
   22.3473  -11.5373   15.9529 O   0  0  0  0  0  0  0  0  0  0  0  0
   22.1810  -13.6679   14.9907 C   0  0  0  0  0  0  0  0  0  0  0  0
   23.9051  -12.5877   13.4405 H   0  0  0  0  0  0  0  0  0  0  0  0
   26.2920   -7.0717   13.1260 C   0  0  0  0  0  0  0  0  0  0  0  0
   25.7999   -5.9335   12.7950 O   0  0  0  0  0  0  0  0  0  0  0  0
   27.4994   -7.3440   13.1972 O   0  0  0  0  0  0  0  0  0  0  0  0
   27.7715   -8.2047   13.4482 H   0  0  0  0  0  0  0  0  0  0  0  0
   25.5453  -10.8929   15.8767 O   0  0  0  0  0  0  0  0  0  0  0  0
   26.6312  -10.3275   16.6622 C   0  0  0  0  0  0  0  0  0  0  0  0
   26.1037  -10.0429   18.0663 C   0  0  0  0  0  0  0  0  0  0  0  0
   24.5921  -10.1344   18.1410 C   0  0  0  0  0  0  0  0  0  0  0  0
   27.7714  -11.3473   16.8178 C   0  0  0  0  0  0  0  0  0  0  0  0
   27.2266  -12.7604   16.9495 C   0  0  0  0  0  0  0  0  0  0  0  0
 15 16  2  0  0  0
 15 17  1  0  0  0
 15  1  1  0  0  0
  1  2  1  0  0  0
  1  6  2  0  0  0
  2  3  1  0  0  0
  3  4  1  0  0  0
  3  7  1  0  0  0
  4 10  1  0  0  0
  4  5  1  0  0  0
 10 11  1  0  0  0
 11 12  2  0  0  0
 11 13  1  0  0  0
  5  6  1  0  0  0
  5 19  1  0  0  0
 19 20  1  0  0  0
 20 21  1  0  0  0
 20 23  1  0  0  0
 21 22  1  0  0  0
 23 24  1  0  0  0
 17 18  1  0  0  0
 10 14  1  0  0  0
  7  8  1  0  0  0
  7  9  1  0  0  0
M  END
> <minimizedAffinity>
-6.28629

$$$$
4GZP_G39_A_512


 24 24  0  0  0  0  0  0  0  0999 V2000
   26.4102  -10.6852   16.3810 C   0  0  0  0  0  0  0  0  0  0  0  0
   27.0103   -9.2915   16.1803 C   0  0  0  0  0  0  0  0  0  0  0  0
   26.8281   -8.9146   14.6854 C   0  0  0  0  0  0  0  0  0  0  0  0
   25.3750   -9.0739   14.3172 C   0  0  0  0  0  0  0  0  0  0  0  0
   25.0231  -10.5407   14.3235 C   0  0  0  0  0  0  0  0  0  0  0  0
   25.3589  -11.1245   15.6748 C   0  0  0  0  0  0  0  0  0  0  0  0
   27.0634   -7.5143   14.4520 N   0  0  0  0  0  0  0  0  0  0  0  0
   26.3989   -6.9628   14.9949 H   0  0  0  0  0  0  0  0  0  0  0  0
   26.9441   -7.3102   13.4598 H   0  0  0  0  0  0  0  0  0  0  0  0
   25.0775   -8.4658   13.0244 N   0  0  0  0  0  0  0  0  0  0  0  0
   24.0879   -7.5636   12.9572 C   0  0  0  0  0  0  0  0  0  0  0  0
   23.3653   -7.2927   13.9167 O   0  0  0  0  0  0  0  0  0  0  0  0
   23.8672   -6.9073   11.6600 C   0  0  0  0  0  0  0  0  0  0  0  0
   25.5908   -8.7120   12.2212 H   0  0  0  0  0  0  0  0  0  0  0  0
   27.0534  -11.5946   17.2969 C   0  0  0  0  0  0  0  0  0  0  0  0
   27.5119  -12.7353   16.9287 O   0  0  0  0  0  0  0  0  0  0  0  0
   27.1560  -11.1064   18.4319 O   0  0  0  0  0  0  0  0  0  0  0  0
   26.7896  -10.2635   18.6142 H   0  0  0  0  0  0  0  0  0  0  0  0
   23.5918  -10.5942   14.1755 O   0  0  0  0  0  0  0  0  0  0  0  0
   23.1011  -11.6862   13.3494 C   0  0  0  0  0  0  0  0  0  0  0  0
   22.0529  -12.4542   14.1506 C   0  0  0  0  0  0  0  0  0  0  0  0
   22.6702  -13.5370   15.0140 C   0  0  0  0  0  0  0  0  0  0  0  0
   22.3887  -11.1395   12.1013 C   0  0  0  0  0  0  0  0  0  0  0  0
   20.9521  -11.6320   12.0322 C   0  0  0  0  0  0  0  0  0  0  0  0
 15 16  2  0  0  0
 15 17  1  0  0  0
 15  1  1  0  0  0
  1  2  1  0  0  0
  1  6  2  0  0  0
  2  3  1  0  0  0
  3  4  1  0  0  0
  3  7  1  0  0  0
  4 10  1  0  0  0
  4  5  1  0  0  0
 10 11  1  0  0  0
 11 12  2  0  0  0
 11 13  1  0  0  0
  5  6  1  0  0  0
  5 19  1  0  0  0
 19 20  1  0  0  0
 20 21  1  0  0  0
 20 23  1  0  0  0
 21 22  1  0  0  0
 23 24  1  0  0  0
 17 18  1  0  0  0
 10 14  1  0  0  0
  7  8  1  0  0  0
  7  9  1  0  0  0
M  END
> <minimizedAffinity>
-6.26089

$$$$
4GZP_G39_A_512


 24 24  0  0  0  0  0  0  0  0999 V2000
   25.3897   -7.6127   12.9655 C   0  0  0  0  0  0  0  0  0  0  0  0
   26.7831   -7.6137   13.5991 C   0  0  0  0  0  0  0  0  0  0  0  0
   26.6902   -8.4039   14.9321 C   0  0  0  0  0  0  0  0  0  0  0  0
   26.0830   -9.7556   14.6550 C   0  0  0  0  0  0  0  0  0  0  0  0
   24.6314   -9.5773   14.2859 C   0  0  0  0  0  0  0  0  0  0  0  0
   24.5313   -8.6316   13.1132 C   0  0  0  0  0  0  0  0  0  0  0  0
   27.9905   -8.7397   15.4491 N   0  0  0  0  0  0  0  0  0  0  0  0
   28.4839   -9.3246   14.7747 H   0  0  0  0  0  0  0  0  0  0  0  0
   27.8863   -9.2475   16.3276 H   0  0  0  0  0  0  0  0  0  0  0  0
   26.2307  -10.6558   15.7941 N   0  0  0  0  0  0  0  0  0  0  0  0
   26.8199  -11.8436   15.5952 C   0  0  0  0  0  0  0  0  0  0  0  0
   27.1607  -12.2416   14.4809 O   0  0  0  0  0  0  0  0  0  0  0  0
   27.0297  -12.6931   16.7770 C   0  0  0  0  0  0  0  0  0  0  0  0
   25.9057  -10.3972   16.6867 H   0  0  0  0  0  0  0  0  0  0  0  0
   24.9467   -6.4353   12.2604 C   0  0  0  0  0  0  0  0  0  0  0  0
   23.9568   -6.4517   11.4438 O   0  0  0  0  0  0  0  0  0  0  0  0
   25.5912   -5.4305   12.5950 O   0  0  0  0  0  0  0  0  0  0  0  0
   26.3024   -5.5101   13.1999 H   0  0  0  0  0  0  0  0  0  0  0  0
   24.1868  -10.8704   13.8348 O   0  0  0  0  0  0  0  0  0  0  0  0
   22.9730  -11.3580   14.4711 C   0  0  0  0  0  0  0  0  0  0  0  0
   23.2780  -12.7156   15.0990 C   0  0  0  0  0  0  0  0  0  0  0  0
   22.0925  -13.6584   15.0317 C   0  0  0  0  0  0  0  0  0  0  0  0
   22.5546  -10.4250   15.6194 C   0  0  0  0  0  0  0  0  0  0  0  0
   21.1305   -9.9283   15.4289 C   0  0  0  0  0  0  0  0  0  0  0  0
 15 16  2  0  0  0
 15 17  1  0  0  0
 15  1  1  0  0  0
  1  2  1  0  0  0
  1  6  2  0  0  0
  2  3  1  0  0  0
  3  4  1  0  0  0
  3  7  1  0  0  0
  4 10  1  0  0  0
  4  5  1  0  0  0
 10 11  1  0  0  0
 11 12  2  0  0  0
 11 13  1  0  0  0
  5  6  1  0  0  0
  5 19  1  0  0  0
 19 20  1  0  0  0
 20 21  1  0  0  0
 20 23  1  0  0  0
 21 22  1  0  0  0
 23 24  1  0  0  0
 17 18  1  0  0  0
 10 14  1  0  0  0
  7  8  1  0  0  0
  7  9  1  0  0  0
M  END
> <minimizedAffinity>
-6.13327

$$$$
4GZP_G39_A_512


 24 24  0  0  0  0  0  0  0  0999 V2000
   25.2545   -7.7946   12.8457 C   0  0  0  0  0  0  0  0  0  0  0  0
   23.9917   -8.4377   12.2671 C   0  0  0  0  0  0  0  0  0  0  0  0
   24.1169   -9.9726   12.4621 C   0  0  0  0  0  0  0  0  0  0  0  0
   24.4038  -10.2566   13.9146 C   0  0  0  0  0  0  0  0  0  0  0  0
   25.7951   -9.7766   14.2449 C   0  0  0  0  0  0  0  0  0  0  0  0
   25.9102   -8.3127   13.8939 C   0  0  0  0  0  0  0  0  0  0  0  0
   22.8628  -10.6452   12.2486 N   0  0  0  0  0  0  0  0  0  0  0  0
   22.1745  -10.3019   12.9184 H   0  0  0  0  0  0  0  0  0  0  0  0
   22.9895  -11.6493   12.3758 H   0  0  0  0  0  0  0  0  0  0  0  0
   24.2466  -11.6733   14.2273 N   0  0  0  0  0  0  0  0  0  0  0  0
   23.2007  -12.0479   14.9779 C   0  0  0  0  0  0  0  0  0  0  0  0
   22.4204  -11.2418   15.4853 O   0  0  0  0  0  0  0  0  0  0  0  0
   23.0223  -13.4896   15.2059 C   0  0  0  0  0  0  0  0  0  0  0  0
   24.8928  -12.3378   13.8953 H   0  0  0  0  0  0  0  0  0  0  0  0
   25.8138   -6.6415   12.1848 C   0  0  0  0  0  0  0  0  0  0  0  0
   25.5892   -5.4419   12.5820 O   0  0  0  0  0  0  0  0  0  0  0  0
   26.5677   -6.9660   11.2557 O   0  0  0  0  0  0  0  0  0  0  0  0
   26.6733   -7.8697   11.0319 H   0  0  0  0  0  0  0  0  0  0  0  0
   25.9109   -9.8862   15.6760 O   0  0  0  0  0  0  0  0  0  0  0  0
   27.1884  -10.3947   16.1508 C   0  0  0  0  0  0  0  0  0  0  0  0
   27.5225  -11.6554   15.3573 C   0  0  0  0  0  0  0  0  0  0  0  0
   27.1475  -12.9202   16.1046 C   0  0  0  0  0  0  0  0  0  0  0  0
   28.3107   -9.3833   15.8649 C   0  0  0  0  0  0  0  0  0  0  0  0
   29.3955  -10.0013   14.9975 C   0  0  0  0  0  0  0  0  0  0  0  0
 15 16  2  0  0  0
 15 17  1  0  0  0
 15  1  1  0  0  0
  1  2  1  0  0  0
  1  6  2  0  0  0
  2  3  1  0  0  0
  3  4  1  0  0  0
  3  7  1  0  0  0
  4 10  1  0  0  0
  4  5  1  0  0  0
 10 11  1  0  0  0
 11 12  2  0  0  0
 11 13  1  0  0  0
  5  6  1  0  0  0
  5 19  1  0  0  0
 19 20  1  0  0  0
 20 21  1  0  0  0
 20 23  1  0  0  0
 21 22  1  0  0  0
 23 24  1  0  0  0
 17 18  1  0  0  0
 10 14  1  0  0  0
  7  8  1  0  0  0
  7  9  1  0  0  0
M  END
> <minimizedAffinity>
-6.12873

$$$$
4GZP_G39_A_512


 24 24  0  0  0  0  0  0  0  0999 V2000
   28.0856  -10.4445   15.0872 C   0  0  0  0  0  0  0  0  0  0  0  0
   28.0247  -11.9417   15.3999 C   0  0  0  0  0  0  0  0  0  0  0  0
   26.6428  -12.2287   16.0464 C   0  0  0  0  0  0  0  0  0  0  0  0
   25.5621  -11.6922   15.1426 C   0  0  0  0  0  0  0  0  0  0  0  0
   25.6144  -10.1847   15.1533 C   0  0  0  0  0  0  0  0  0  0  0  0
   26.9988   -9.7345   14.7527 C   0  0  0  0  0  0  0  0  0  0  0  0
   26.3517  -13.6374   16.0882 N   0  0  0  0  0  0  0  0  0  0  0  0
   26.3340  -14.0092   15.1386 H   0  0  0  0  0  0  0  0  0  0  0  0
   25.4430  -13.7838   16.5278 H   0  0  0  0  0  0  0  0  0  0  0  0
   24.2427  -12.1768   15.5348 N   0  0  0  0  0  0  0  0  0  0  0  0
   23.5385  -12.8954   14.6486 C   0  0  0  0  0  0  0  0  0  0  0  0
   23.9182  -13.0882   13.4932 O   0  0  0  0  0  0  0  0  0  0  0  0
   22.2500  -13.4403   15.1013 C   0  0  0  0  0  0  0  0  0  0  0  0
   23.8785  -11.9810   16.4282 H   0  0  0  0  0  0  0  0  0  0  0  0
   29.3396   -9.7506   15.2466 C   0  0  0  0  0  0  0  0  0  0  0  0
   29.7468   -9.3135   16.3825 O   0  0  0  0  0  0  0  0  0  0  0  0
   29.9737   -9.6989   14.1826 O   0  0  0  0  0  0  0  0  0  0  0  0
   29.5986  -10.0438   13.3963 H   0  0  0  0  0  0  0  0  0  0  0  0
   24.7079   -9.7604   14.1182 O   0  0  0  0  0  0  0  0  0  0  0  0
   23.8404   -8.6502   14.4800 C   0  0  0  0  0  0  0  0  0  0  0  0
   23.6330   -7.7854   13.2392 C   0  0  0  0  0  0  0  0  0  0  0  0
   24.9454   -7.3483   12.6183 C   0  0  0  0  0  0  0  0  0  0  0  0
   22.4523   -9.1645   14.8960 C   0  0  0  0  0  0  0  0  0  0  0  0
   22.2327   -8.9968   16.3908 C   0  0  0  0  0  0  0  0  0  0  0  0
 15 16  2  0  0  0
 15 17  1  0  0  0
 15  1  1  0  0  0
  1  2  1  0  0  0
  1  6  2  0  0  0
  2  3  1  0  0  0
  3  4  1  0  0  0
  3  7  1  0  0  0
  4 10  1  0  0  0
  4  5  1  0  0  0
 10 11  1  0  0  0
 11 12  2  0  0  0
 11 13  1  0  0  0
  5  6  1  0  0  0
  5 19  1  0  0  0
 19 20  1  0  0  0
 20 21  1  0  0  0
 20 23  1  0  0  0
 21 22  1  0  0  0
 23 24  1  0  0  0
 17 18  1  0  0  0
 10 14  1  0  0  0
  7  8  1  0  0  0
  7  9  1  0  0  0
M  END
> <minimizedAffinity>
-6.10707

$$$$
4GZP_G39_A_512


 24 24  0  0  0  0  0  0  0  0999 V2000
   22.4507  -10.9863   14.9813 C   0  0  0  0  0  0  0  0  0  0  0  0
   21.7963  -10.4540   13.7041 C   0  0  0  0  0  0  0  0  0  0  0  0
   22.0817   -8.9298   13.6325 C   0  0  0  0  0  0  0  0  0  0  0  0
   23.5667   -8.7062   13.7635 C   0  0  0  0  0  0  0  0  0  0  0  0
   23.9941   -9.0470   15.1694 C   0  0  0  0  0  0  0  0  0  0  0  0
   23.5787  -10.4642   15.4833 C   0  0  0  0  0  0  0  0  0  0  0  0
   21.7927   -8.3899   12.3303 N   0  0  0  0  0  0  0  0  0  0  0  0
   22.3797   -8.8491   11.6339 H   0  0  0  0  0  0  0  0  0  0  0  0
   21.9830   -7.3878   12.3278 H   0  0  0  0  0  0  0  0  0  0  0  0
   23.9378   -7.3382   13.4165 N   0  0  0  0  0  0  0  0  0  0  0  0
   24.8593   -7.1508   12.4608 C   0  0  0  0  0  0  0  0  0  0  0  0
   25.4668   -8.0799   11.9279 O   0  0  0  0  0  0  0  0  0  0  0  0
   25.1509   -5.7622   12.0749 C   0  0  0  0  0  0  0  0  0  0  0  0
   23.5217   -6.5716   13.8730 H   0  0  0  0  0  0  0  0  0  0  0  0
   21.7829  -12.0263   15.7242 C   0  0  0  0  0  0  0  0  0  0  0  0
   22.0204  -13.2728   15.5322 O   0  0  0  0  0  0  0  0  0  0  0  0
   21.0259  -11.5594   16.5879 O   0  0  0  0  0  0  0  0  0  0  0  0
   20.9105  -10.6321   16.6579 H   0  0  0  0  0  0  0  0  0  0  0  0
   25.4335   -9.0142   15.1532 O   0  0  0  0  0  0  0  0  0  0  0  0
   26.0800  -10.1401   15.8092 C   0  0  0  0  0  0  0  0  0  0  0  0
   27.2617  -10.5775   14.9474 C   0  0  0  0  0  0  0  0  0  0  0  0
   28.5050   -9.7524   15.2167 C   0  0  0  0  0  0  0  0  0  0  0  0
   26.6595   -9.7120   17.1676 C   0  0  0  0  0  0  0  0  0  0  0  0
   25.7925  -10.2094   18.3129 C   0  0  0  0  0  0  0  0  0  0  0  0
 15 16  2  0  0  0
 15 17  1  0  0  0
 15  1  1  0  0  0
  1  2  1  0  0  0
  1  6  2  0  0  0
  2  3  1  0  0  0
  3  4  1  0  0  0
  3  7  1  0  0  0
  4 10  1  0  0  0
  4  5  1  0  0  0
 10 11  1  0  0  0
 11 12  2  0  0  0
 11 13  1  0  0  0
  5  6  1  0  0  0
  5 19  1  0  0  0
 19 20  1  0  0  0
 20 21  1  0  0  0
 20 23  1  0  0  0
 21 22  1  0  0  0
 23 24  1  0  0  0
 17 18  1  0  0  0
 10 14  1  0  0  0
  7  8  1  0  0  0
  7  9  1  0  0  0
M  END
> <minimizedAffinity>
-6.04601

$$$$
4GZP_G39_A_512


 24 24  0  0  0  0  0  0  0  0999 V2000
   24.9168   -7.0317   11.9027 C   0  0  0  0  0  0  0  0  0  0  0  0
   23.3974   -7.1365   11.7493 C   0  0  0  0  0  0  0  0  0  0  0  0
   22.9615   -8.5065   12.3350 C   0  0  0  0  0  0  0  0  0  0  0  0
   23.4998   -8.6292   13.7377 C   0  0  0  0  0  0  0  0  0  0  0  0
   25.0006   -8.7683   13.6791 C   0  0  0  0  0  0  0  0  0  0  0  0
   25.5774   -7.5948   12.9242 C   0  0  0  0  0  0  0  0  0  0  0  0
   21.5380   -8.5772   12.5335 N   0  0  0  0  0  0  0  0  0  0  0  0
   21.2500   -7.8523   13.1908 H   0  0  0  0  0  0  0  0  0  0  0  0
   21.2922   -9.4933   12.9086 H   0  0  0  0  0  0  0  0  0  0  0  0
   22.8939   -9.7492   14.4507 N   0  0  0  0  0  0  0  0  0  0  0  0
   22.2770   -9.5041   15.6156 C   0  0  0  0  0  0  0  0  0  0  0  0
   22.2761   -8.3948   16.1501 O   0  0  0  0  0  0  0  0  0  0  0  0
   21.6043  -10.6371   16.2683 C   0  0  0  0  0  0  0  0  0  0  0  0
   22.9371  -10.6623   14.0852 H   0  0  0  0  0  0  0  0  0  0  0  0
   25.6781   -6.3830   10.8639 C   0  0  0  0  0  0  0  0  0  0  0  0
   25.4129   -5.1967   10.4524 O   0  0  0  0  0  0  0  0  0  0  0  0
   26.6301   -7.0826   10.4880 O   0  0  0  0  0  0  0  0  0  0  0  0
   26.7491   -7.9416   10.8428 H   0  0  0  0  0  0  0  0  0  0  0  0
   25.4507   -8.6655   15.0430 O   0  0  0  0  0  0  0  0  0  0  0  0
   26.4124   -9.6783   15.4494 C   0  0  0  0  0  0  0  0  0  0  0  0
   26.1224  -10.9527   14.6605 C   0  0  0  0  0  0  0  0  0  0  0  0
   26.1387  -12.1881   15.5395 C   0  0  0  0  0  0  0  0  0  0  0  0
   27.8403   -9.2452   15.0781 C   0  0  0  0  0  0  0  0  0  0  0  0
   28.8066   -9.5105   16.2213 C   0  0  0  0  0  0  0  0  0  0  0  0
 15 16  2  0  0  0
 15 17  1  0  0  0
 15  1  1  0  0  0
  1  2  1  0  0  0
  1  6  2  0  0  0
  2  3  1  0  0  0
  3  4  1  0  0  0
  3  7  1  0  0  0
  4 10  1  0  0  0
  4  5  1  0  0  0
 10 11  1  0  0  0
 11 12  2  0  0  0
 11 13  1  0  0  0
  5  6  1  0  0  0
  5 19  1  0  0  0
 19 20  1  0  0  0
 20 21  1  0  0  0
 20 23  1  0  0  0
 21 22  1  0  0  0
 23 24  1  0  0  0
 17 18  1  0  0  0
 10 14  1  0  0  0
  7  8  1  0  0  0
  7  9  1  0  0  0
M  END
> <minimizedAffinity>
-5.88785

$$$$
4GZP_G39_A_512


 24 24  0  0  0  0  0  0  0  0999 V2000
   28.0185  -10.0798   15.0640 C   0  0  0  0  0  0  0  0  0  0  0  0
   27.5192  -11.4989   15.3461 C   0  0  0  0  0  0  0  0  0  0  0  0
   26.1874  -11.3782   16.1346 C   0  0  0  0  0  0  0  0  0  0  0  0
   25.2485  -10.4810   15.3689 C   0  0  0  0  0  0  0  0  0  0  0  0
   25.7746   -9.0680   15.4094 C   0  0  0  0  0  0  0  0  0  0  0  0
   27.1842   -9.0489   14.8688 C   0  0  0  0  0  0  0  0  0  0  0  0
   25.4722  -12.6262   16.1751 N   0  0  0  0  0  0  0  0  0  0  0  0
   25.2453  -12.9190   15.2247 H   0  0  0  0  0  0  0  0  0  0  0  0
   24.6112  -12.5074   16.7089 H   0  0  0  0  0  0  0  0  0  0  0  0
   23.8884  -10.5526   15.8932 N   0  0  0  0  0  0  0  0  0  0  0  0
   22.9797  -11.2653   15.2122 C   0  0  0  0  0  0  0  0  0  0  0  0
   23.2200  -11.7866   14.1228 O   0  0  0  0  0  0  0  0  0  0  0  0
   21.6412  -11.3879   15.8084 C   0  0  0  0  0  0  0  0  0  0  0  0
   23.6442  -10.0889   16.7266 H   0  0  0  0  0  0  0  0  0  0  0  0
   29.4367   -9.8210   15.1000 C   0  0  0  0  0  0  0  0  0  0  0  0
   30.1384   -9.6731   14.0357 O   0  0  0  0  0  0  0  0  0  0  0  0
   29.8515   -9.6993   16.2620 O   0  0  0  0  0  0  0  0  0  0  0  0
   29.2672   -9.8256   16.9836 H   0  0  0  0  0  0  0  0  0  0  0  0
   24.9517   -8.3240   14.4914 O   0  0  0  0  0  0  0  0  0  0  0  0
   25.3272   -8.4490   13.0917 C   0  0  0  0  0  0  0  0  0  0  0  0
   24.1159   -8.9652   12.3191 C   0  0  0  0  0  0  0  0  0  0  0  0
   22.8093   -8.4463   12.8868 C   0  0  0  0  0  0  0  0  0  0  0  0
   25.6724   -7.0718   12.5014 C   0  0  0  0  0  0  0  0  0  0  0  0
   25.6834   -7.1155   10.9819 C   0  0  0  0  0  0  0  0  0  0  0  0
 15 16  2  0  0  0
 15 17  1  0  0  0
 15  1  1  0  0  0
  1  2  1  0  0  0
  1  6  2  0  0  0
  2  3  1  0  0  0
  3  4  1  0  0  0
  3  7  1  0  0  0
  4 10  1  0  0  0
  4  5  1  0  0  0
 10 11  1  0  0  0
 11 12  2  0  0  0
 11 13  1  0  0  0
  5  6  1  0  0  0
  5 19  1  0  0  0
 19 20  1  0  0  0
 20 21  1  0  0  0
 20 23  1  0  0  0
 21 22  1  0  0  0
 23 24  1  0  0  0
 17 18  1  0  0  0
 10 14  1  0  0  0
  7  8  1  0  0  0
  7  9  1  0  0  0
M  END
> <minimizedAffinity>
-5.88578

$$$$
