4DZY_WJ1_A_404


 13 13  0  0  0  0  0  0  0  0999 V2000
   -9.4581  -31.2337   15.6925 C   0  0  0  0  0  0  0  0  0  0  0  0
   -9.2190  -31.6396   17.1312 C   0  0  0  0  0  0  0  0  0  0  0  0
   -9.8931  -30.9909   18.1564 C   0  0  0  0  0  0  0  0  0  0  0  0
   -8.3133  -32.6509   17.4351 C   0  0  0  0  0  0  0  0  0  0  0  0
   -8.0752  -32.9994   18.7623 C   0  0  0  0  0  0  0  0  0  0  0  0
   -8.7440  -32.3468   19.7959 C   0  0  0  0  0  0  0  0  0  0  0  0
   -9.6529  -31.3415   19.4858 C   0  0  0  0  0  0  0  0  0  0  0  0
   -8.1050  -30.8046   15.0804 C   0  0  0  0  0  0  0  0  0  0  0  0
   -8.0874  -29.0672   14.6554 Cl  0  0  0  0  0  0  0  0  0  0  0  0
   -8.4015  -31.2524   12.8026 O   0  0  0  0  0  0  0  0  0  0  0  0
   -7.8341  -31.5665   13.8242 C   0  0  0  0  0  0  0  0  0  0  0  0
   -6.9593  -32.5802   13.7904 O   0  0  0  0  0  0  0  0  0  0  0  0
   -9.0169  -30.5458   12.8067 H   0  0  0  0  0  0  0  0  0  0  0  0
 12 11  2  0  0  0
 10 11  1  0  0  0
 11  8  1  0  0  0
  9  8  1  0  0  0
  8  1  1  0  0  0
  1  2  1  0  0  0
  2  3  2  0  0  0
  2  4  1  0  0  0
  3  7  1  0  0  0
  4  5  2  0  0  0
  7  6  2  0  0  0
  5  6  1  0  0  0
 10 13  1  0  0  0
M  END
> <minimizedAffinity>
-7.60649

$$$$
4DZY_WJ1_A_404


 13 13  0  0  0  0  0  0  0  0999 V2000
   -9.4268  -31.2885   15.7068 C   0  0  0  0  0  0  0  0  0  0  0  0
   -9.1863  -31.6564   17.1555 C   0  0  0  0  0  0  0  0  0  0  0  0
   -8.2832  -32.6604   17.4757 C   0  0  0  0  0  0  0  0  0  0  0  0
   -9.8785  -31.0039   18.1706 C   0  0  0  0  0  0  0  0  0  0  0  0
   -9.6753  -31.3673   19.4996 C   0  0  0  0  0  0  0  0  0  0  0  0
   -8.7749  -32.3793   19.8265 C   0  0  0  0  0  0  0  0  0  0  0  0
   -8.0812  -33.0232   18.8082 C   0  0  0  0  0  0  0  0  0  0  0  0
   -8.0791  -30.8495   15.0898 C   0  0  0  0  0  0  0  0  0  0  0  0
   -8.0649  -29.1053   14.6934 Cl  0  0  0  0  0  0  0  0  0  0  0  0
   -8.4012  -31.2640   12.8092 O   0  0  0  0  0  0  0  0  0  0  0  0
   -7.8197  -31.5906   13.8188 C   0  0  0  0  0  0  0  0  0  0  0  0
   -6.9400  -32.5988   13.7588 O   0  0  0  0  0  0  0  0  0  0  0  0
   -9.0202  -30.5609   12.8316 H   0  0  0  0  0  0  0  0  0  0  0  0
 12 11  2  0  0  0
 10 11  1  0  0  0
 11  8  1  0  0  0
  9  8  1  0  0  0
  8  1  1  0  0  0
  1  2  1  0  0  0
  2  3  2  0  0  0
  2  4  1  0  0  0
  3  7  1  0  0  0
  4  5  2  0  0  0
  7  6  2  0  0  0
  5  6  1  0  0  0
 10 13  1  0  0  0
M  END
> <minimizedAffinity>
-7.60623

$$$$
4DZY_WJ1_A_404


 13 13  0  0  0  0  0  0  0  0999 V2000
   -9.5559  -31.5404   16.2480 C   0  0  0  0  0  0  0  0  0  0  0  0
   -9.3218  -31.8639   17.7082 C   0  0  0  0  0  0  0  0  0  0  0  0
  -10.0276  -31.1846   18.6913 C   0  0  0  0  0  0  0  0  0  0  0  0
   -8.3893  -32.8295   18.0735 C   0  0  0  0  0  0  0  0  0  0  0  0
   -8.1566  -33.1016   19.4194 C   0  0  0  0  0  0  0  0  0  0  0  0
   -8.8574  -32.4177   20.4107 C   0  0  0  0  0  0  0  0  0  0  0  0
   -9.7927  -31.4585   20.0395 C   0  0  0  0  0  0  0  0  0  0  0  0
   -8.2351  -30.9979   15.6556 C   0  0  0  0  0  0  0  0  0  0  0  0
   -8.4508  -29.3844   14.9143 Cl  0  0  0  0  0  0  0  0  0  0  0  0
   -7.2675  -32.9856   14.8875 O   0  0  0  0  0  0  0  0  0  0  0  0
   -7.7291  -31.9087   14.5849 C   0  0  0  0  0  0  0  0  0  0  0  0
   -7.7917  -31.5751   13.2892 O   0  0  0  0  0  0  0  0  0  0  0  0
   -7.2155  -33.2365   15.7888 H   0  0  0  0  0  0  0  0  0  0  0  0
 12 11  2  0  0  0
 10 11  1  0  0  0
 11  8  1  0  0  0
  9  8  1  0  0  0
  8  1  1  0  0  0
  1  2  1  0  0  0
  2  3  2  0  0  0
  2  4  1  0  0  0
  3  7  1  0  0  0
  4  5  2  0  0  0
  7  6  2  0  0  0
  5  6  1  0  0  0
 10 13  1  0  0  0
M  END
> <minimizedAffinity>
-7.28380

$$$$
4DZY_WJ1_A_404


 13 13  0  0  0  0  0  0  0  0999 V2000
   -8.6941  -32.5759   15.9657 C   0  0  0  0  0  0  0  0  0  0  0  0
   -9.0464  -32.0732   17.3495 C   0  0  0  0  0  0  0  0  0  0  0  0
  -10.2395  -31.3958   17.5587 C   0  0  0  0  0  0  0  0  0  0  0  0
   -8.1722  -32.2721   18.4133 C   0  0  0  0  0  0  0  0  0  0  0  0
   -8.4880  -31.7810   19.6777 C   0  0  0  0  0  0  0  0  0  0  0  0
   -9.6813  -31.0942   19.8920 C   0  0  0  0  0  0  0  0  0  0  0  0
  -10.5539  -30.9042   18.8266 C   0  0  0  0  0  0  0  0  0  0  0  0
   -7.7995  -31.5176   15.2805 C   0  0  0  0  0  0  0  0  0  0  0  0
   -8.4872  -29.8724   15.4211 Cl  0  0  0  0  0  0  0  0  0  0  0  0
   -8.3437  -31.2085   13.0255 O   0  0  0  0  0  0  0  0  0  0  0  0
   -7.6629  -31.8131   13.8224 C   0  0  0  0  0  0  0  0  0  0  0  0
   -6.7874  -32.7185   13.3666 O   0  0  0  0  0  0  0  0  0  0  0  0
   -8.9617  -30.5712   13.3255 H   0  0  0  0  0  0  0  0  0  0  0  0
 12 11  2  0  0  0
 10 11  1  0  0  0
 11  8  1  0  0  0
  9  8  1  0  0  0
  8  1  1  0  0  0
  1  2  1  0  0  0
  2  3  2  0  0  0
  2  4  1  0  0  0
  3  7  1  0  0  0
  4  5  2  0  0  0
  7  6  2  0  0  0
  5  6  1  0  0  0
 10 13  1  0  0  0
M  END
> <minimizedAffinity>
-7.08528

$$$$
4DZY_WJ1_A_404


 13 13  0  0  0  0  0  0  0  0999 V2000
   -9.5858  -31.7153   16.1013 C   0  0  0  0  0  0  0  0  0  0  0  0
   -9.3206  -31.9424   17.5743 C   0  0  0  0  0  0  0  0  0  0  0  0
   -8.4972  -32.9839   17.9786 C   0  0  0  0  0  0  0  0  0  0  0  0
   -9.9113  -31.1216   18.5296 C   0  0  0  0  0  0  0  0  0  0  0  0
   -9.6876  -31.3540   19.8844 C   0  0  0  0  0  0  0  0  0  0  0  0
   -8.8673  -32.4024   20.2963 C   0  0  0  0  0  0  0  0  0  0  0  0
   -8.2745  -33.2153   19.3368 C   0  0  0  0  0  0  0  0  0  0  0  0
   -8.2306  -31.7358   15.3577 C   0  0  0  0  0  0  0  0  0  0  0  0
   -6.8807  -31.2364   16.4196 Cl  0  0  0  0  0  0  0  0  0  0  0  0
   -8.4455  -31.2151   13.0862 O   0  0  0  0  0  0  0  0  0  0  0  0
   -8.2536  -30.7889   14.2023 C   0  0  0  0  0  0  0  0  0  0  0  0
   -8.0886  -29.4703   14.3695 O   0  0  0  0  0  0  0  0  0  0  0  0
   -8.5631  -32.1346   12.9496 H   0  0  0  0  0  0  0  0  0  0  0  0
 12 11  2  0  0  0
 10 11  1  0  0  0
 11  8  1  0  0  0
  9  8  1  0  0  0
  8  1  1  0  0  0
  1  2  1  0  0  0
  2  3  2  0  0  0
  2  4  1  0  0  0
  3  7  1  0  0  0
  4  5  2  0  0  0
  7  6  2  0  0  0
  5  6  1  0  0  0
 10 13  1  0  0  0
M  END
> <minimizedAffinity>
-6.61277

$$$$
4DZY_WJ1_A_404


 13 13  0  0  0  0  0  0  0  0999 V2000
   -9.5574  -32.3817   17.4352 C   0  0  0  0  0  0  0  0  0  0  0  0
   -8.8916  -31.7315   16.2413 C   0  0  0  0  0  0  0  0  0  0  0  0
   -9.1632  -30.4060   15.9318 C   0  0  0  0  0  0  0  0  0  0  0  0
   -8.0188  -32.4603   15.4398 C   0  0  0  0  0  0  0  0  0  0  0  0
   -7.4325  -31.8655   14.3253 C   0  0  0  0  0  0  0  0  0  0  0  0
   -7.7069  -30.5372   14.0060 C   0  0  0  0  0  0  0  0  0  0  0  0
   -8.5748  -29.8119   14.8144 C   0  0  0  0  0  0  0  0  0  0  0  0
   -8.7974  -31.9460   18.7089 C   0  0  0  0  0  0  0  0  0  0  0  0
   -8.1956  -33.3506   19.6386 Cl  0  0  0  0  0  0  0  0  0  0  0  0
  -10.1333  -31.6991   20.6145 O   0  0  0  0  0  0  0  0  0  0  0  0
   -9.6975  -31.1722   19.6161 C   0  0  0  0  0  0  0  0  0  0  0  0
  -10.0210  -29.8967   19.3665 O   0  0  0  0  0  0  0  0  0  0  0  0
   -9.9179  -32.5907   20.8058 H   0  0  0  0  0  0  0  0  0  0  0  0
 12 11  2  0  0  0
 10 11  1  0  0  0
 11  8  1  0  0  0
  9  8  1  0  0  0
  8  1  1  0  0  0
  1  2  1  0  0  0
  2  3  2  0  0  0
  2  4  1  0  0  0
  3  7  1  0  0  0
  4  5  2  0  0  0
  7  6  2  0  0  0
  5  6  1  0  0  0
 10 13  1  0  0  0
M  END
> <minimizedAffinity>
-6.22451

$$$$
4DZY_WJ1_A_404


 13 13  0  0  0  0  0  0  0  0999 V2000
   -8.2623  -30.9614   17.0272 C   0  0  0  0  0  0  0  0  0  0  0  0
   -8.7018  -31.5269   18.3609 C   0  0  0  0  0  0  0  0  0  0  0  0
   -8.0474  -32.6269   18.8976 C   0  0  0  0  0  0  0  0  0  0  0  0
   -9.7709  -30.9598   19.0470 C   0  0  0  0  0  0  0  0  0  0  0  0
  -10.1898  -31.5030   20.2590 C   0  0  0  0  0  0  0  0  0  0  0  0
   -9.5409  -32.6115   20.7992 C   0  0  0  0  0  0  0  0  0  0  0  0
   -8.4690  -33.1699   20.1122 C   0  0  0  0  0  0  0  0  0  0  0  0
   -8.9343  -31.7879   15.9069 C   0  0  0  0  0  0  0  0  0  0  0  0
  -10.2676  -32.8013   16.5354 Cl  0  0  0  0  0  0  0  0  0  0  0  0
   -7.7856  -33.8189   15.7269 O   0  0  0  0  0  0  0  0  0  0  0  0
   -7.9448  -32.7092   15.2713 C   0  0  0  0  0  0  0  0  0  0  0  0
   -7.2395  -32.3483   14.1914 O   0  0  0  0  0  0  0  0  0  0  0  0
   -8.2702  -34.0893   16.4819 H   0  0  0  0  0  0  0  0  0  0  0  0
 12 11  2  0  0  0
 10 11  1  0  0  0
 11  8  1  0  0  0
  9  8  1  0  0  0
  8  1  1  0  0  0
  1  2  1  0  0  0
  2  3  2  0  0  0
  2  4  1  0  0  0
  3  7  1  0  0  0
  4  5  2  0  0  0
  7  6  2  0  0  0
  5  6  1  0  0  0
 10 13  1  0  0  0
M  END
> <minimizedAffinity>
-5.95046

$$$$
4DZY_WJ1_A_404


 13 13  0  0  0  0  0  0  0  0999 V2000
   -7.6440  -31.7520   17.3198 C   0  0  0  0  0  0  0  0  0  0  0  0
   -8.4030  -31.9380   18.6164 C   0  0  0  0  0  0  0  0  0  0  0  0
   -8.2028  -33.0796   19.3799 C   0  0  0  0  0  0  0  0  0  0  0  0
   -9.3147  -30.9770   19.0414 C   0  0  0  0  0  0  0  0  0  0  0  0
  -10.0320  -31.1679   20.2197 C   0  0  0  0  0  0  0  0  0  0  0  0
   -9.8402  -32.3153   20.9866 C   0  0  0  0  0  0  0  0  0  0  0  0
   -8.9230  -33.2691   20.5603 C   0  0  0  0  0  0  0  0  0  0  0  0
   -8.4109  -32.4927   16.2005 C   0  0  0  0  0  0  0  0  0  0  0  0
   -7.5342  -32.4357   14.6424 Cl  0  0  0  0  0  0  0  0  0  0  0  0
   -9.8244  -30.8493   15.3184 O   0  0  0  0  0  0  0  0  0  0  0  0
   -9.7465  -31.8621   15.9760 C   0  0  0  0  0  0  0  0  0  0  0  0
  -10.8706  -32.4005   16.4663 O   0  0  0  0  0  0  0  0  0  0  0  0
   -9.0488  -30.4581   14.9670 H   0  0  0  0  0  0  0  0  0  0  0  0
 12 11  2  0  0  0
 10 11  1  0  0  0
 11  8  1  0  0  0
  9  8  1  0  0  0
  8  1  1  0  0  0
  1  2  1  0  0  0
  2  3  2  0  0  0
  2  4  1  0  0  0
  3  7  1  0  0  0
  4  5  2  0  0  0
  7  6  2  0  0  0
  5  6  1  0  0  0
 10 13  1  0  0  0
M  END
> <minimizedAffinity>
-5.90481

$$$$
4DZY_WJ1_A_404


 13 13  0  0  0  0  0  0  0  0999 V2000
   -7.6472  -31.9819   18.0184 C   0  0  0  0  0  0  0  0  0  0  0  0
   -7.9025  -31.6302   16.5683 C   0  0  0  0  0  0  0  0  0  0  0  0
   -7.2791  -32.3510   15.5593 C   0  0  0  0  0  0  0  0  0  0  0  0
   -8.7479  -30.5756   16.2390 C   0  0  0  0  0  0  0  0  0  0  0  0
   -8.9554  -30.2376   14.9040 C   0  0  0  0  0  0  0  0  0  0  0  0
   -8.3267  -30.9534   13.8872 C   0  0  0  0  0  0  0  0  0  0  0  0
   -7.4881  -32.0104   14.2221 C   0  0  0  0  0  0  0  0  0  0  0  0
   -9.0119  -32.0914   18.7364 C   0  0  0  0  0  0  0  0  0  0  0  0
   -9.5526  -30.5138   19.3831 Cl  0  0  0  0  0  0  0  0  0  0  0  0
   -8.2402  -34.0285   19.7990 O   0  0  0  0  0  0  0  0  0  0  0  0
   -8.9200  -33.0320   19.8935 C   0  0  0  0  0  0  0  0  0  0  0  0
   -9.5552  -32.7918   21.0480 O   0  0  0  0  0  0  0  0  0  0  0  0
   -7.7884  -34.2133   18.9992 H   0  0  0  0  0  0  0  0  0  0  0  0
 12 11  2  0  0  0
 10 11  1  0  0  0
 11  8  1  0  0  0
  9  8  1  0  0  0
  8  1  1  0  0  0
  1  2  1  0  0  0
  2  3  2  0  0  0
  2  4  1  0  0  0
  3  7  1  0  0  0
  4  5  2  0  0  0
  7  6  2  0  0  0
  5  6  1  0  0  0
 10 13  1  0  0  0
M  END
> <minimizedAffinity>
-5.82079

$$$$
4DZY_WJ1_A_404


 13 13  0  0  0  0  0  0  0  0999 V2000
   -9.3704  -32.5652   17.3832 C   0  0  0  0  0  0  0  0  0  0  0  0
   -8.7981  -31.8663   16.1685 C   0  0  0  0  0  0  0  0  0  0  0  0
   -7.8980  -32.5296   15.3462 C   0  0  0  0  0  0  0  0  0  0  0  0
   -9.1570  -30.5538   15.8785 C   0  0  0  0  0  0  0  0  0  0  0  0
   -8.6041  -29.9060   14.7766 C   0  0  0  0  0  0  0  0  0  0  0  0
   -7.6947  -30.5647   13.9516 C   0  0  0  0  0  0  0  0  0  0  0  0
   -7.3449  -31.8784   14.2426 C   0  0  0  0  0  0  0  0  0  0  0  0
   -9.0380  -31.7153   18.6310 C   0  0  0  0  0  0  0  0  0  0  0  0
   -8.8175  -32.7292   20.0880 Cl  0  0  0  0  0  0  0  0  0  0  0  0
   -9.9376  -29.7979   19.6266 O   0  0  0  0  0  0  0  0  0  0  0  0
  -10.1490  -30.7606   18.9246 C   0  0  0  0  0  0  0  0  0  0  0  0
  -11.3752  -30.9284   18.4125 O   0  0  0  0  0  0  0  0  0  0  0  0
   -9.0860  -29.6638   19.9938 H   0  0  0  0  0  0  0  0  0  0  0  0
 12 11  2  0  0  0
 10 11  1  0  0  0
 11  8  1  0  0  0
  9  8  1  0  0  0
  8  1  1  0  0  0
  1  2  1  0  0  0
  2  3  2  0  0  0
  2  4  1  0  0  0
  3  7  1  0  0  0
  4  5  2  0  0  0
  7  6  2  0  0  0
  5  6  1  0  0  0
 10 13  1  0  0  0
M  END
> <minimizedAffinity>
-5.81139

$$$$
