2RCB_DSN_A_901


 11 10  0  0  0  0  0  0  0  0999 V2000
   59.2788   22.0237   23.8265 N   0  0  0  0  0  0  0  0  0  0  0  0
   58.0153   22.8625   23.8969 C   0  0  0  0  0  0  0  0  0  0  0  0
   60.0949   22.6324   23.8891 H   0  0  0  0  0  0  0  0  0  0  0  0
   59.3007   21.5155   22.9423 H   0  0  0  0  0  0  0  0  0  0  0  0
   58.0210   23.9881   22.8889 C   0  0  0  0  0  0  0  0  0  0  0  0
   58.9086   23.9436   21.9715 O   0  0  0  0  0  0  0  0  0  0  0  0
   57.1599   24.8540   23.0184 O   0  0  0  0  0  0  0  0  0  0  0  0
   56.5477   24.8038   23.7260 H   0  0  0  0  0  0  0  0  0  0  0  0
   56.7743   22.0010   23.8077 C   0  0  0  0  0  0  0  0  0  0  0  0
   55.5796   22.6204   24.3673 O   0  0  0  0  0  0  0  0  0  0  0  0
   55.7124   22.7816   25.3145 H   0  0  0  0  0  0  0  0  0  0  0  0
  1  2  1  0  0  0
  2  5  1  0  0  0
  2  9  1  0  0  0
  5  6  2  0  0  0
  5  7  1  0  0  0
  9 10  1  0  0  0
  1  3  1  0  0  0
  1  4  1  0  0  0
  7  8  1  0  0  0
 10 11  1  0  0  0
M  END
> <minimizedAffinity>
-5.10094

$$$$
2RCB_DSN_A_901


 11 10  0  0  0  0  0  0  0  0999 V2000
   56.3287   22.4987   24.1304 N   0  0  0  0  0  0  0  0  0  0  0  0
   57.5373   22.5445   23.2127 C   0  0  0  0  0  0  0  0  0  0  0  0
   55.5629   23.0257   23.7106 H   0  0  0  0  0  0  0  0  0  0  0  0
   56.5705   22.9100   25.0319 H   0  0  0  0  0  0  0  0  0  0  0  0
   57.9047   23.9576   22.8235 C   0  0  0  0  0  0  0  0  0  0  0  0
   58.9524   24.1109   22.1092 O   0  0  0  0  0  0  0  0  0  0  0  0
   57.1579   24.8522   23.2104 O   0  0  0  0  0  0  0  0  0  0  0  0
   56.4087   24.6438   23.7332 H   0  0  0  0  0  0  0  0  0  0  0  0
   58.7026   21.7741   23.7947 C   0  0  0  0  0  0  0  0  0  0  0  0
   59.5738   22.5706   24.6496 O   0  0  0  0  0  0  0  0  0  0  0  0
   59.9730   23.2848   24.1286 H   0  0  0  0  0  0  0  0  0  0  0  0
  1  2  1  0  0  0
  2  5  1  0  0  0
  2  9  1  0  0  0
  5  6  2  0  0  0
  5  7  1  0  0  0
  9 10  1  0  0  0
  1  3  1  0  0  0
  1  4  1  0  0  0
  7  8  1  0  0  0
 10 11  1  0  0  0
M  END
> <minimizedAffinity>
-4.91950

$$$$
2RCB_DSN_A_901


 11 10  0  0  0  0  0  0  0  0999 V2000
   59.1498   21.9732   23.8407 N   0  0  0  0  0  0  0  0  0  0  0  0
   58.0534   22.7728   23.1599 C   0  0  0  0  0  0  0  0  0  0  0  0
   58.7655   21.0929   24.1838 H   0  0  0  0  0  0  0  0  0  0  0  0
   59.5249   22.5086   24.6237 H   0  0  0  0  0  0  0  0  0  0  0  0
   56.8358   22.9355   24.0398 C   0  0  0  0  0  0  0  0  0  0  0  0
   56.0052   21.9656   24.0694 O   0  0  0  0  0  0  0  0  0  0  0  0
   56.7447   23.9831   24.6738 O   0  0  0  0  0  0  0  0  0  0  0  0
   57.4058   24.6416   24.5882 H   0  0  0  0  0  0  0  0  0  0  0  0
   58.5770   24.0913   22.6328 C   0  0  0  0  0  0  0  0  0  0  0  0
   57.5396   25.0816   22.3737 O   0  0  0  0  0  0  0  0  0  0  0  0
   56.9407   24.7502   21.6864 H   0  0  0  0  0  0  0  0  0  0  0  0
  1  2  1  0  0  0
  2  5  1  0  0  0
  2  9  1  0  0  0
  5  6  2  0  0  0
  5  7  1  0  0  0
  9 10  1  0  0  0
  1  3  1  0  0  0
  1  4  1  0  0  0
  7  8  1  0  0  0
 10 11  1  0  0  0
M  END
> <minimizedAffinity>
-4.51176

$$$$
2RCB_DSN_A_901


 11 10  0  0  0  0  0  0  0  0999 V2000
   56.2181   22.9353   24.1336 N   0  0  0  0  0  0  0  0  0  0  0  0
   57.6790   23.2786   23.9043 C   0  0  0  0  0  0  0  0  0  0  0  0
   56.1457   22.2293   24.8663 H   0  0  0  0  0  0  0  0  0  0  0  0
   55.8146   22.5719   23.2702 H   0  0  0  0  0  0  0  0  0  0  0  0
   58.5221   22.0491   23.6581 C   0  0  0  0  0  0  0  0  0  0  0  0
   58.0929   21.2125   22.7936 O   0  0  0  0  0  0  0  0  0  0  0  0
   59.5665   21.9546   24.2971 O   0  0  0  0  0  0  0  0  0  0  0  0
   59.8007   22.6208   24.9130 H   0  0  0  0  0  0  0  0  0  0  0  0
   57.8376   24.3252   22.8227 C   0  0  0  0  0  0  0  0  0  0  0  0
   58.9047   24.0400   21.8718 O   0  0  0  0  0  0  0  0  0  0  0  0
   59.7557   24.0208   22.3370 H   0  0  0  0  0  0  0  0  0  0  0  0
  1  2  1  0  0  0
  2  5  1  0  0  0
  2  9  1  0  0  0
  5  6  2  0  0  0
  5  7  1  0  0  0
  9 10  1  0  0  0
  1  3  1  0  0  0
  1  4  1  0  0  0
  7  8  1  0  0  0
 10 11  1  0  0  0
M  END
> <minimizedAffinity>
-4.29629

$$$$
2RCB_DSN_A_901


 11 10  0  0  0  0  0  0  0  0999 V2000
   58.6672   24.0964   22.3043 N   0  0  0  0  0  0  0  0  0  0  0  0
   58.1751   22.8752   23.0601 C   0  0  0  0  0  0  0  0  0  0  0  0
   59.5886   23.9045   21.9111 H   0  0  0  0  0  0  0  0  0  0  0  0
   58.7284   24.8895   22.9427 H   0  0  0  0  0  0  0  0  0  0  0  0
   59.1849   22.3854   24.0718 C   0  0  0  0  0  0  0  0  0  0  0  0
   59.6958   21.2317   23.8729 O   0  0  0  0  0  0  0  0  0  0  0  0
   59.4508   23.1416   25.0020 O   0  0  0  0  0  0  0  0  0  0  0  0
   59.0235   23.9730   25.0668 H   0  0  0  0  0  0  0  0  0  0  0  0
   56.8076   23.1125   23.6633 C   0  0  0  0  0  0  0  0  0  0  0  0
   56.7424   24.2654   24.5525 O   0  0  0  0  0  0  0  0  0  0  0  0
   57.3350   24.1252   25.3076 H   0  0  0  0  0  0  0  0  0  0  0  0
  1  2  1  0  0  0
  2  5  1  0  0  0
  2  9  1  0  0  0
  5  6  2  0  0  0
  5  7  1  0  0  0
  9 10  1  0  0  0
  1  3  1  0  0  0
  1  4  1  0  0  0
  7  8  1  0  0  0
 10 11  1  0  0  0
M  END
> <minimizedAffinity>
-4.06309

$$$$
2RCB_DSN_A_901


 11 10  0  0  0  0  0  0  0  0999 V2000
   58.0360   24.6371   22.9627 N   0  0  0  0  0  0  0  0  0  0  0  0
   57.8339   23.2002   23.4093 C   0  0  0  0  0  0  0  0  0  0  0  0
   58.9174   24.7146   22.4552 H   0  0  0  0  0  0  0  0  0  0  0  0
   58.0594   25.2470   23.7799 H   0  0  0  0  0  0  0  0  0  0  0  0
   59.0273   22.6646   24.1655 C   0  0  0  0  0  0  0  0  0  0  0  0
   59.5125   21.5500   23.7737 O   0  0  0  0  0  0  0  0  0  0  0  0
   59.4517   23.3507   25.0914 O   0  0  0  0  0  0  0  0  0  0  0  0
   59.0290   24.1584   25.3080 H   0  0  0  0  0  0  0  0  0  0  0  0
   56.5353   23.0351   24.1688 C   0  0  0  0  0  0  0  0  0  0  0  0
   56.0383   21.6654   24.2049 O   0  0  0  0  0  0  0  0  0  0  0  0
   55.8471   21.3670   23.3020 H   0  0  0  0  0  0  0  0  0  0  0  0
  1  2  1  0  0  0
  2  5  1  0  0  0
  2  9  1  0  0  0
  5  6  2  0  0  0
  5  7  1  0  0  0
  9 10  1  0  0  0
  1  3  1  0  0  0
  1  4  1  0  0  0
  7  8  1  0  0  0
 10 11  1  0  0  0
M  END
> <minimizedAffinity>
-3.05930

$$$$
2RCB_DSN_A_901


 11 10  0  0  0  0  0  0  0  0999 V2000
   56.7105   24.1519   24.3862 N   0  0  0  0  0  0  0  0  0  0  0  0
   57.8787   23.4228   23.7469 C   0  0  0  0  0  0  0  0  0  0  0  0
   56.5094   23.7391   25.2970 H   0  0  0  0  0  0  0  0  0  0  0  0
   55.8893   24.0697   23.7868 H   0  0  0  0  0  0  0  0  0  0  0  0
   57.6665   21.9272   23.7102 C   0  0  0  0  0  0  0  0  0  0  0  0
   58.6604   21.2067   23.3576 O   0  0  0  0  0  0  0  0  0  0  0  0
   56.5572   21.5155   24.0385 O   0  0  0  0  0  0  0  0  0  0  0  0
   55.8859   22.1217   24.2831 H   0  0  0  0  0  0  0  0  0  0  0  0
   58.2153   24.0014   22.3896 C   0  0  0  0  0  0  0  0  0  0  0  0
   57.8596   25.4066   22.2380 O   0  0  0  0  0  0  0  0  0  0  0  0
   56.8993   25.5087   22.3294 H   0  0  0  0  0  0  0  0  0  0  0  0
  1  2  1  0  0  0
  2  5  1  0  0  0
  2  9  1  0  0  0
  5  6  2  0  0  0
  5  7  1  0  0  0
  9 10  1  0  0  0
  1  3  1  0  0  0
  1  4  1  0  0  0
  7  8  1  0  0  0
 10 11  1  0  0  0
M  END
> <minimizedAffinity>
-2.96937

$$$$
2RCB_DSN_A_901


 11 10  0  0  0  0  0  0  0  0999 V2000
   58.6197   24.0588   22.3862 N   0  0  0  0  0  0  0  0  0  0  0  0
   58.1837   23.5748   23.7575 C   0  0  0  0  0  0  0  0  0  0  0  0
   57.8017   24.3576   21.8552 H   0  0  0  0  0  0  0  0  0  0  0  0
   59.0881   23.3001   21.8910 H   0  0  0  0  0  0  0  0  0  0  0  0
   57.0915   22.5340   23.6744 C   0  0  0  0  0  0  0  0  0  0  0  0
   57.3789   21.4336   23.0932 O   0  0  0  0  0  0  0  0  0  0  0  0
   56.0127   22.8188   24.1872 O   0  0  0  0  0  0  0  0  0  0  0  0
   55.8930   23.6548   24.5932 H   0  0  0  0  0  0  0  0  0  0  0  0
   59.3664   23.1198   24.5848 C   0  0  0  0  0  0  0  0  0  0  0  0
   59.7364   21.7257   24.3758 O   0  0  0  0  0  0  0  0  0  0  0  0
   59.0008   21.1524   24.6428 H   0  0  0  0  0  0  0  0  0  0  0  0
  1  2  1  0  0  0
  2  5  1  0  0  0
  2  9  1  0  0  0
  5  6  2  0  0  0
  5  7  1  0  0  0
  9 10  1  0  0  0
  1  3  1  0  0  0
  1  4  1  0  0  0
  7  8  1  0  0  0
 10 11  1  0  0  0
M  END
> <minimizedAffinity>
-2.77206

$$$$
2RCB_DSN_A_901


 11 10  0  0  0  0  0  0  0  0999 V2000
   55.2258   17.7766   20.7038 N   0  0  0  0  0  0  0  0  0  0  0  0
   54.5674   18.5016   19.5437 C   0  0  0  0  0  0  0  0  0  0  0  0
   56.0907   18.2546   20.9567 H   0  0  0  0  0  0  0  0  0  0  0  0
   55.4353   16.8167   20.4300 H   0  0  0  0  0  0  0  0  0  0  0  0
   55.5170   18.7065   18.3864 C   0  0  0  0  0  0  0  0  0  0  0  0
   56.1422   19.8192   18.3363 O   0  0  0  0  0  0  0  0  0  0  0  0
   55.6285   17.7796   17.5887 O   0  0  0  0  0  0  0  0  0  0  0  0
   55.1267   16.9971   17.7065 H   0  0  0  0  0  0  0  0  0  0  0  0
   53.2767   17.8274   19.1317 C   0  0  0  0  0  0  0  0  0  0  0  0
   52.8655   18.1172   17.7638 O   0  0  0  0  0  0  0  0  0  0  0  0
   52.6991   19.0683   17.6708 H   0  0  0  0  0  0  0  0  0  0  0  0
  1  2  1  0  0  0
  2  5  1  0  0  0
  2  9  1  0  0  0
  5  6  2  0  0  0
  5  7  1  0  0  0
  9 10  1  0  0  0
  1  3  1  0  0  0
  1  4  1  0  0  0
  7  8  1  0  0  0
 10 11  1  0  0  0
M  END
> <minimizedAffinity>
-2.27046

$$$$
2RCB_DSN_A_901


 11 10  0  0  0  0  0  0  0  0999 V2000
   59.2543   21.3839   23.9606 N   0  0  0  0  0  0  0  0  0  0  0  0
   59.0381   22.8861   23.9975 C   0  0  0  0  0  0  0  0  0  0  0  0
   58.9114   21.0128   23.0745 H   0  0  0  0  0  0  0  0  0  0  0  0
   58.7468   20.9483   24.7307 H   0  0  0  0  0  0  0  0  0  0  0  0
   57.6091   23.2647   23.6846 C   0  0  0  0  0  0  0  0  0  0  0  0
   57.4101   24.4223   23.1829 O   0  0  0  0  0  0  0  0  0  0  0  0
   56.7470   22.4230   23.9216 O   0  0  0  0  0  0  0  0  0  0  0  0
   56.9881   21.5969   24.2923 H   0  0  0  0  0  0  0  0  0  0  0  0
   59.5326   23.4838   25.2970 C   0  0  0  0  0  0  0  0  0  0  0  0
   60.6601   22.7732   25.8867 O   0  0  0  0  0  0  0  0  0  0  0  0
   60.3921   21.8673   26.1066 H   0  0  0  0  0  0  0  0  0  0  0  0
  1  2  1  0  0  0
  2  5  1  0  0  0
  2  9  1  0  0  0
  5  6  2  0  0  0
  5  7  1  0  0  0
  9 10  1  0  0  0
  1  3  1  0  0  0
  1  4  1  0  0  0
  7  8  1  0  0  0
 10 11  1  0  0  0
M  END
> <minimizedAffinity>
-2.18789

$$$$
