5VGY_9AA_A_304


 22 23  0  0  0  0  0  0  0  0999 V2000
    1.0928    3.0804   80.6815 C   0  0  0  0  0  0  0  0  0  0  0  0
    1.4125    4.7177   82.1053 C   0  0  0  0  0  0  0  0  0  0  0  0
   -0.1942    3.7538   80.8140 C   0  0  0  0  0  0  0  0  0  0  0  0
    2.0731    3.6789   81.4635 N   0  0  0  0  0  0  0  0  0  0  0  0
    0.1592    4.8796   81.4975 N   0  0  0  0  0  0  0  0  0  0  0  0
    1.3636    2.0668   80.0239 O   0  0  0  0  0  0  0  0  0  0  0  0
   -0.5895    4.3127   79.5163 O   0  0  0  0  0  0  0  0  0  0  0  0
    1.9694    5.5615   83.4238 S   0  0  0  0  0  0  0  0  0  0  0  0
    3.0207    3.4242   81.5441 H   0  0  0  0  0  0  0  0  0  0  0  0
   -0.3903    5.6943   81.5562 H   0  0  0  0  0  0  0  0  0  0  0  0
   -0.8685    3.5949   78.9266 H   0  0  0  0  0  0  0  0  0  0  0  0
   -1.2512    2.8352   81.2839 C   0  0  0  0  0  0  0  0  0  0  0  0
   -0.6778    1.1770   83.0723 C   0  0  0  0  0  0  0  0  0  0  0  0
   -0.6330    0.8095   84.4199 C   0  0  0  0  0  0  0  0  0  0  0  0
   -1.6792    2.8432   85.0505 C   0  0  0  0  0  0  0  0  0  0  0  0
   -1.2189    2.3986   82.7444 C   0  0  0  0  0  0  0  0  0  0  0  0
   -1.1237    1.6319   85.3804 C   0  0  0  0  0  0  0  0  0  0  0  0
   -1.6910    3.2495   83.7506 C   0  0  0  0  0  0  0  0  0  0  0  0
   -2.4068    1.7926   87.4296 C   0  0  0  0  0  0  0  0  0  0  0  0
   -1.2069    1.3761   86.7559 O   0  0  0  0  0  0  0  0  0  0  0  0
   -2.2475    5.4895   84.2467 C   0  0  0  0  0  0  0  0  0  0  0  0
   -2.2066    4.4315   83.2960 O   0  0  0  0  0  0  0  0  0  0  0  0
 13 14  2  0  0  0
 13 16  1  0  0  0
 14 17  1  0  0  0
 12 16  1  0  0  0
 12  3  1  0  0  0
 16 18  2  0  0  0
  6  1  2  0  0  0
 17 20  1  0  0  0
 17 15  2  0  0  0
 19 20  1  0  0  0
 18 15  1  0  0  0
 18 22  1  0  0  0
  1  3  1  0  0  0
  1  4  1  0  0  0
 22 21  1  0  0  0
  3  7  1  0  0  0
  3  5  1  0  0  0
  4  2  1  0  0  0
  5  2  1  0  0  0
  2  8  2  0  0  0
  4  9  1  0  0  0
  5 10  1  0  0  0
  7 11  1  0  0  0
M  END
> <minimizedAffinity>
-7.04570

$$$$
5VGY_9AA_A_304


 22 23  0  0  0  0  0  0  0  0999 V2000
   -0.9086    3.6871   80.8936 C   0  0  0  0  0  0  0  0  0  0  0  0
   -0.4256    1.6058   81.3888 C   0  0  0  0  0  0  0  0  0  0  0  0
    0.2773    3.7413   81.7412 C   0  0  0  0  0  0  0  0  0  0  0  0
   -1.3277    2.3809   80.6726 N   0  0  0  0  0  0  0  0  0  0  0  0
    0.6409    2.4276   81.7810 N   0  0  0  0  0  0  0  0  0  0  0  0
   -1.5610    4.6303   80.4271 O   0  0  0  0  0  0  0  0  0  0  0  0
    1.3905    4.3290   80.9876 O   0  0  0  0  0  0  0  0  0  0  0  0
   -0.6187    0.0056   81.7920 S   0  0  0  0  0  0  0  0  0  0  0  0
   -2.0908    2.0747   80.1311 H   0  0  0  0  0  0  0  0  0  0  0  0
    1.5303    2.1009   82.0485 H   0  0  0  0  0  0  0  0  0  0  0  0
    1.2464    5.2832   80.8895 H   0  0  0  0  0  0  0  0  0  0  0  0
    0.0470    4.5415   82.9612 C   0  0  0  0  0  0  0  0  0  0  0  0
    0.1027    2.9731   84.9141 C   0  0  0  0  0  0  0  0  0  0  0  0
   -0.5223    2.3783   86.0135 C   0  0  0  0  0  0  0  0  0  0  0  0
   -2.5441    3.5232   85.5341 C   0  0  0  0  0  0  0  0  0  0  0  0
   -0.6220    3.8563   84.1477 C   0  0  0  0  0  0  0  0  0  0  0  0
   -1.8167    2.6548   86.3098 C   0  0  0  0  0  0  0  0  0  0  0  0
   -1.9467    4.1559   84.4864 C   0  0  0  0  0  0  0  0  0  0  0  0
   -3.9861    1.8744   87.0551 C   0  0  0  0  0  0  0  0  0  0  0  0
   -2.5924    2.0925   87.3326 O   0  0  0  0  0  0  0  0  0  0  0  0
   -2.9520    6.2774   84.2373 C   0  0  0  0  0  0  0  0  0  0  0  0
   -2.5583    5.0444   83.6461 O   0  0  0  0  0  0  0  0  0  0  0  0
 13 14  2  0  0  0
 13 16  1  0  0  0
 14 17  1  0  0  0
 12 16  1  0  0  0
 12  3  1  0  0  0
 16 18  2  0  0  0
  6  1  2  0  0  0
 17 20  1  0  0  0
 17 15  2  0  0  0
 19 20  1  0  0  0
 18 15  1  0  0  0
 18 22  1  0  0  0
  1  3  1  0  0  0
  1  4  1  0  0  0
 22 21  1  0  0  0
  3  7  1  0  0  0
  3  5  1  0  0  0
  4  2  1  0  0  0
  5  2  1  0  0  0
  2  8  2  0  0  0
  4  9  1  0  0  0
  5 10  1  0  0  0
  7 11  1  0  0  0
M  END
> <minimizedAffinity>
-6.77386

$$$$
5VGY_9AA_A_304


 22 23  0  0  0  0  0  0  0  0999 V2000
    2.2800    6.3395   82.8283 C   0  0  0  0  0  0  0  0  0  0  0  0
    3.3539    5.0807   81.3888 C   0  0  0  0  0  0  0  0  0  0  0  0
    1.8733    4.9681   83.1131 C   0  0  0  0  0  0  0  0  0  0  0  0
    3.1920    6.4023   81.7819 N   0  0  0  0  0  0  0  0  0  0  0  0
    2.7645    4.2605   82.3617 N   0  0  0  0  0  0  0  0  0  0  0  0
    1.8794    7.3838   83.3593 O   0  0  0  0  0  0  0  0  0  0  0  0
    2.2881    4.6075   84.4734 O   0  0  0  0  0  0  0  0  0  0  0  0
    4.0428    4.5623   79.9684 S   0  0  0  0  0  0  0  0  0  0  0  0
    3.6250    7.2021   81.4049 H   0  0  0  0  0  0  0  0  0  0  0  0
    2.9664    3.3049   82.4853 H   0  0  0  0  0  0  0  0  0  0  0  0
    1.7173    5.0578   85.1156 H   0  0  0  0  0  0  0  0  0  0  0  0
    0.4118    4.7902   82.9931 C   0  0  0  0  0  0  0  0  0  0  0  0
   -0.9657    4.1766   84.9938 C   0  0  0  0  0  0  0  0  0  0  0  0
   -1.5939    3.2134   85.7879 C   0  0  0  0  0  0  0  0  0  0  0  0
   -0.7738    1.4748   84.3976 C   0  0  0  0  0  0  0  0  0  0  0  0
   -0.2569    3.7562   83.8923 C   0  0  0  0  0  0  0  0  0  0  0  0
   -1.4959    1.8944   85.4873 C   0  0  0  0  0  0  0  0  0  0  0  0
   -0.1928    2.3938   83.5774 C   0  0  0  0  0  0  0  0  0  0  0  0
   -2.8189    1.1282   87.3671 C   0  0  0  0  0  0  0  0  0  0  0  0
   -2.0123    0.8161   86.2187 O   0  0  0  0  0  0  0  0  0  0  0  0
    0.1102    0.9727   81.7167 C   0  0  0  0  0  0  0  0  0  0  0  0
    0.5432    2.1050   82.4618 O   0  0  0  0  0  0  0  0  0  0  0  0
 13 14  2  0  0  0
 13 16  1  0  0  0
 14 17  1  0  0  0
 12 16  1  0  0  0
 12  3  1  0  0  0
 16 18  2  0  0  0
  6  1  2  0  0  0
 17 20  1  0  0  0
 17 15  2  0  0  0
 19 20  1  0  0  0
 18 15  1  0  0  0
 18 22  1  0  0  0
  1  3  1  0  0  0
  1  4  1  0  0  0
 22 21  1  0  0  0
  3  7  1  0  0  0
  3  5  1  0  0  0
  4  2  1  0  0  0
  5  2  1  0  0  0
  2  8  2  0  0  0
  4  9  1  0  0  0
  5 10  1  0  0  0
  7 11  1  0  0  0
M  END
> <minimizedAffinity>
-6.63806

$$$$
5VGY_9AA_A_304


 22 23  0  0  0  0  0  0  0  0999 V2000
    1.8349    3.5778   81.5574 C   0  0  0  0  0  0  0  0  0  0  0  0
    1.5112    5.4940   82.5741 C   0  0  0  0  0  0  0  0  0  0  0  0
    0.5619    4.0864   81.0590 C   0  0  0  0  0  0  0  0  0  0  0  0
    2.4158    4.4456   82.4741 N   0  0  0  0  0  0  0  0  0  0  0  0
    0.5746    5.3628   81.5387 N   0  0  0  0  0  0  0  0  0  0  0  0
    2.3837    2.4987   81.2979 O   0  0  0  0  0  0  0  0  0  0  0  0
    0.6599    4.3173   79.6135 O   0  0  0  0  0  0  0  0  0  0  0  0
    1.4858    6.6505   83.7668 S   0  0  0  0  0  0  0  0  0  0  0  0
    3.2738    4.3407   82.9454 H   0  0  0  0  0  0  0  0  0  0  0  0
    0.0044    6.0922   81.2040 H   0  0  0  0  0  0  0  0  0  0  0  0
    0.6605    3.4656   79.1492 H   0  0  0  0  0  0  0  0  0  0  0  0
   -0.5478    3.1476   81.3217 C   0  0  0  0  0  0  0  0  0  0  0  0
   -1.3020    3.5631   83.6745 C   0  0  0  0  0  0  0  0  0  0  0  0
   -1.5205    3.1108   84.9786 C   0  0  0  0  0  0  0  0  0  0  0  0
   -0.6505    0.9740   84.4258 C   0  0  0  0  0  0  0  0  0  0  0  0
   -0.7671    2.6870   82.7586 C   0  0  0  0  0  0  0  0  0  0  0  0
   -1.2003    1.8422   85.3362 C   0  0  0  0  0  0  0  0  0  0  0  0
   -0.4727    1.3714   83.1354 C   0  0  0  0  0  0  0  0  0  0  0  0
   -2.5805    1.3344   87.2619 C   0  0  0  0  0  0  0  0  0  0  0  0
   -1.3003    1.2684   86.6110 O   0  0  0  0  0  0  0  0  0  0  0  0
   -0.7759   -0.4535   81.6686 C   0  0  0  0  0  0  0  0  0  0  0  0
    0.0562    0.6018   82.1365 O   0  0  0  0  0  0  0  0  0  0  0  0
 13 14  2  0  0  0
 13 16  1  0  0  0
 14 17  1  0  0  0
 12 16  1  0  0  0
 12  3  1  0  0  0
 16 18  2  0  0  0
  6  1  2  0  0  0
 17 20  1  0  0  0
 17 15  2  0  0  0
 19 20  1  0  0  0
 18 15  1  0  0  0
 18 22  1  0  0  0
  1  3  1  0  0  0
  1  4  1  0  0  0
 22 21  1  0  0  0
  3  7  1  0  0  0
  3  5  1  0  0  0
  4  2  1  0  0  0
  5  2  1  0  0  0
  2  8  2  0  0  0
  4  9  1  0  0  0
  5 10  1  0  0  0
  7 11  1  0  0  0
M  END
> <minimizedAffinity>
-6.63583

$$$$
5VGY_9AA_A_304


 22 23  0  0  0  0  0  0  0  0999 V2000
    0.3808    5.1866   81.8734 C   0  0  0  0  0  0  0  0  0  0  0  0
   -0.3373    3.1504   81.4884 C   0  0  0  0  0  0  0  0  0  0  0  0
    1.1047    4.3240   82.8005 C   0  0  0  0  0  0  0  0  0  0  0  0
   -0.4905    4.4644   81.0672 N   0  0  0  0  0  0  0  0  0  0  0  0
    0.7899    3.0872   82.3202 N   0  0  0  0  0  0  0  0  0  0  0  0
    0.4283    6.4202   81.7781 O   0  0  0  0  0  0  0  0  0  0  0  0
    2.5414    4.3920   82.5112 O   0  0  0  0  0  0  0  0  0  0  0  0
   -1.3627    1.8893   81.1439 S   0  0  0  0  0  0  0  0  0  0  0  0
   -1.0819    4.8066   80.3585 H   0  0  0  0  0  0  0  0  0  0  0  0
    1.2861    2.2628   82.5288 H   0  0  0  0  0  0  0  0  0  0  0  0
    2.8919    5.2448   82.8126 H   0  0  0  0  0  0  0  0  0  0  0  0
    0.8785    4.7137   84.2072 C   0  0  0  0  0  0  0  0  0  0  0  0
   -1.4272    5.4091   84.8977 C   0  0  0  0  0  0  0  0  0  0  0  0
   -2.6788    5.1015   85.4381 C   0  0  0  0  0  0  0  0  0  0  0  0
   -2.0046    2.8605   85.8270 C   0  0  0  0  0  0  0  0  0  0  0  0
   -0.4840    4.4106   84.8208 C   0  0  0  0  0  0  0  0  0  0  0  0
   -2.9525    3.8517   85.8884 C   0  0  0  0  0  0  0  0  0  0  0  0
   -0.7935    3.1180   85.2598 C   0  0  0  0  0  0  0  0  0  0  0  0
   -4.2165    2.0140   86.8352 C   0  0  0  0  0  0  0  0  0  0  0  0
   -4.1293    3.4116   86.5094 O   0  0  0  0  0  0  0  0  0  0  0  0
   -0.1669    0.8659   84.9291 C   0  0  0  0  0  0  0  0  0  0  0  0
    0.2279    2.2178   85.1328 O   0  0  0  0  0  0  0  0  0  0  0  0
 13 14  2  0  0  0
 13 16  1  0  0  0
 14 17  1  0  0  0
 12 16  1  0  0  0
 12  3  1  0  0  0
 16 18  2  0  0  0
  6  1  2  0  0  0
 17 20  1  0  0  0
 17 15  2  0  0  0
 19 20  1  0  0  0
 18 15  1  0  0  0
 18 22  1  0  0  0
  1  3  1  0  0  0
  1  4  1  0  0  0
 22 21  1  0  0  0
  3  7  1  0  0  0
  3  5  1  0  0  0
  4  2  1  0  0  0
  5  2  1  0  0  0
  2  8  2  0  0  0
  4  9  1  0  0  0
  5 10  1  0  0  0
  7 11  1  0  0  0
M  END
> <minimizedAffinity>
-6.58050

$$$$
5VGY_9AA_A_304


 22 23  0  0  0  0  0  0  0  0999 V2000
   -0.7365    1.2443   85.0681 C   0  0  0  0  0  0  0  0  0  0  0  0
   -2.1324    2.0203   86.5713 C   0  0  0  0  0  0  0  0  0  0  0  0
   -0.3704    2.6414   85.2721 C   0  0  0  0  0  0  0  0  0  0  0  0
   -1.8058    0.8668   85.8711 N   0  0  0  0  0  0  0  0  0  0  0  0
   -1.1041    2.9541   86.3782 N   0  0  0  0  0  0  0  0  0  0  0  0
   -0.2521    0.4340   84.2670 O   0  0  0  0  0  0  0  0  0  0  0  0
    0.9969    2.7166   85.7986 O   0  0  0  0  0  0  0  0  0  0  0  0
   -3.5392    2.2845   87.4150 S   0  0  0  0  0  0  0  0  0  0  0  0
   -2.2344   -0.0175   85.9302 H   0  0  0  0  0  0  0  0  0  0  0  0
   -0.9351    3.7291   86.9612 H   0  0  0  0  0  0  0  0  0  0  0  0
    1.6276    2.5097   85.0913 H   0  0  0  0  0  0  0  0  0  0  0  0
   -0.4467    3.4199   84.0192 C   0  0  0  0  0  0  0  0  0  0  0  0
   -0.9140    5.8191   84.5692 C   0  0  0  0  0  0  0  0  0  0  0  0
   -0.5056    7.1544   84.6282 C   0  0  0  0  0  0  0  0  0  0  0  0
    1.5911    6.5971   83.6683 C   0  0  0  0  0  0  0  0  0  0  0  0
   -0.0359    4.8875   84.0655 C   0  0  0  0  0  0  0  0  0  0  0  0
    0.7222    7.5250   84.1868 C   0  0  0  0  0  0  0  0  0  0  0  0
    1.2397    5.2816   83.6446 C   0  0  0  0  0  0  0  0  0  0  0  0
    1.6673    9.4234   85.3589 C   0  0  0  0  0  0  0  0  0  0  0  0
    1.2450    8.8238   84.1224 O   0  0  0  0  0  0  0  0  0  0  0  0
    2.3853    4.3703   81.7924 C   0  0  0  0  0  0  0  0  0  0  0  0
    2.0156    4.2641   83.1624 O   0  0  0  0  0  0  0  0  0  0  0  0
 13 14  2  0  0  0
 13 16  1  0  0  0
 14 17  1  0  0  0
 12 16  1  0  0  0
 12  3  1  0  0  0
 16 18  2  0  0  0
  6  1  2  0  0  0
 17 20  1  0  0  0
 17 15  2  0  0  0
 19 20  1  0  0  0
 18 15  1  0  0  0
 18 22  1  0  0  0
  1  3  1  0  0  0
  1  4  1  0  0  0
 22 21  1  0  0  0
  3  7  1  0  0  0
  3  5  1  0  0  0
  4  2  1  0  0  0
  5  2  1  0  0  0
  2  8  2  0  0  0
  4  9  1  0  0  0
  5 10  1  0  0  0
  7 11  1  0  0  0
M  END
> <minimizedAffinity>
-6.48775

$$$$
5VGY_9AA_A_304


 22 23  0  0  0  0  0  0  0  0999 V2000
    1.8132    6.3587   83.5055 C   0  0  0  0  0  0  0  0  0  0  0  0
    2.9837    5.4928   81.8652 C   0  0  0  0  0  0  0  0  0  0  0  0
    1.6484    4.9136   83.6145 C   0  0  0  0  0  0  0  0  0  0  0  0
    2.6378    6.7071   82.4427 N   0  0  0  0  0  0  0  0  0  0  0  0
    2.5932    4.4672   82.7383 N   0  0  0  0  0  0  0  0  0  0  0  0
    1.2848    7.2444   84.1906 O   0  0  0  0  0  0  0  0  0  0  0  0
    2.1980    4.4539   84.8948 O   0  0  0  0  0  0  0  0  0  0  0  0
    3.6580    5.2844   80.3611 S   0  0  0  0  0  0  0  0  0  0  0  0
    2.9139    7.6096   82.1628 H   0  0  0  0  0  0  0  0  0  0  0  0
    2.9520    3.5506   82.7210 H   0  0  0  0  0  0  0  0  0  0  0  0
    1.6032    4.7161   85.6147 H   0  0  0  0  0  0  0  0  0  0  0  0
    0.2294    4.5125   83.5286 C   0  0  0  0  0  0  0  0  0  0  0  0
   -0.2905    3.0531   81.5596 C   0  0  0  0  0  0  0  0  0  0  0  0
   -0.5556    1.7927   81.0173 C   0  0  0  0  0  0  0  0  0  0  0  0
   -0.4470    0.7999   83.1692 C   0  0  0  0  0  0  0  0  0  0  0  0
   -0.0916    3.1531   82.9172 C   0  0  0  0  0  0  0  0  0  0  0  0
   -0.6285    0.6962   81.8123 C   0  0  0  0  0  0  0  0  0  0  0  0
   -0.1377    2.0068   83.7192 C   0  0  0  0  0  0  0  0  0  0  0  0
    0.1440   -1.5366   81.2748 C   0  0  0  0  0  0  0  0  0  0  0  0
   -0.9472   -0.6129   81.4262 O   0  0  0  0  0  0  0  0  0  0  0  0
   -1.0119    1.9096   85.9101 C   0  0  0  0  0  0  0  0  0  0  0  0
    0.0730    2.2388   85.0502 O   0  0  0  0  0  0  0  0  0  0  0  0
 13 14  2  0  0  0
 13 16  1  0  0  0
 14 17  1  0  0  0
 12 16  1  0  0  0
 12  3  1  0  0  0
 16 18  2  0  0  0
  6  1  2  0  0  0
 17 20  1  0  0  0
 17 15  2  0  0  0
 19 20  1  0  0  0
 18 15  1  0  0  0
 18 22  1  0  0  0
  1  3  1  0  0  0
  1  4  1  0  0  0
 22 21  1  0  0  0
  3  7  1  0  0  0
  3  5  1  0  0  0
  4  2  1  0  0  0
  5  2  1  0  0  0
  2  8  2  0  0  0
  4  9  1  0  0  0
  5 10  1  0  0  0
  7 11  1  0  0  0
M  END
> <minimizedAffinity>
-6.36925

$$$$
5VGY_9AA_A_304


 22 23  0  0  0  0  0  0  0  0999 V2000
   -0.3450    1.8305   84.7765 C   0  0  0  0  0  0  0  0  0  0  0  0
   -1.0798    2.0386   82.7205 C   0  0  0  0  0  0  0  0  0  0  0  0
   -0.7836    3.2154   84.6455 C   0  0  0  0  0  0  0  0  0  0  0  0
   -0.5377    1.1132   83.6021 N   0  0  0  0  0  0  0  0  0  0  0  0
   -1.4433    3.1780   83.4526 N   0  0  0  0  0  0  0  0  0  0  0  0
    0.1916    1.2852   85.7500 O   0  0  0  0  0  0  0  0  0  0  0  0
   -1.8856    3.4698   85.5801 O   0  0  0  0  0  0  0  0  0  0  0  0
   -1.1935    1.8655   81.0720 S   0  0  0  0  0  0  0  0  0  0  0  0
   -0.3357    0.1645   83.4336 H   0  0  0  0  0  0  0  0  0  0  0  0
   -2.0866    3.8579   83.1472 H   0  0  0  0  0  0  0  0  0  0  0  0
   -1.5379    3.5192   86.4842 H   0  0  0  0  0  0  0  0  0  0  0  0
    0.3105    4.1686   84.9214 C   0  0  0  0  0  0  0  0  0  0  0  0
   -0.0970    6.5668   84.3218 C   0  0  0  0  0  0  0  0  0  0  0  0
    0.0870    7.6528   83.4615 C   0  0  0  0  0  0  0  0  0  0  0  0
    1.3495    6.3081   81.9695 C   0  0  0  0  0  0  0  0  0  0  0  0
    0.4712    5.3603   83.9839 C   0  0  0  0  0  0  0  0  0  0  0  0
    0.7975    7.5170   82.3141 C   0  0  0  0  0  0  0  0  0  0  0  0
    1.2290    5.2454   82.8127 C   0  0  0  0  0  0  0  0  0  0  0  0
    0.8286    9.8632   81.7100 C   0  0  0  0  0  0  0  0  0  0  0  0
    1.0118    8.4894   81.3279 O   0  0  0  0  0  0  0  0  0  0  0  0
    2.2661    3.7732   81.2860 C   0  0  0  0  0  0  0  0  0  0  0  0
    1.7372    3.9960   82.5881 O   0  0  0  0  0  0  0  0  0  0  0  0
 13 14  2  0  0  0
 13 16  1  0  0  0
 14 17  1  0  0  0
 12 16  1  0  0  0
 12  3  1  0  0  0
 16 18  2  0  0  0
  6  1  2  0  0  0
 17 20  1  0  0  0
 17 15  2  0  0  0
 19 20  1  0  0  0
 18 15  1  0  0  0
 18 22  1  0  0  0
  1  3  1  0  0  0
  1  4  1  0  0  0
 22 21  1  0  0  0
  3  7  1  0  0  0
  3  5  1  0  0  0
  4  2  1  0  0  0
  5  2  1  0  0  0
  2  8  2  0  0  0
  4  9  1  0  0  0
  5 10  1  0  0  0
  7 11  1  0  0  0
M  END
> <minimizedAffinity>
-6.30420

$$$$
5VGY_9AA_A_304


 22 23  0  0  0  0  0  0  0  0999 V2000
    2.0938    6.1974   82.4686 C   0  0  0  0  0  0  0  0  0  0  0  0
    3.4723    5.0118   81.2421 C   0  0  0  0  0  0  0  0  0  0  0  0
    1.8468    4.8037   82.8210 C   0  0  0  0  0  0  0  0  0  0  0  0
    3.0943    6.3201   81.5122 N   0  0  0  0  0  0  0  0  0  0  0  0
    2.8990    4.1818   82.2162 N   0  0  0  0  0  0  0  0  0  0  0  0
    1.5032    7.2070   82.8748 O   0  0  0  0  0  0  0  0  0  0  0  0
    2.1607    4.5949   84.2389 O   0  0  0  0  0  0  0  0  0  0  0  0
    4.3702    4.5046   79.9394 S   0  0  0  0  0  0  0  0  0  0  0  0
    3.4534    7.1468   81.1162 H   0  0  0  0  0  0  0  0  0  0  0  0
    3.2131    3.2744   82.4337 H   0  0  0  0  0  0  0  0  0  0  0  0
    1.4702    5.0008   84.7861 H   0  0  0  0  0  0  0  0  0  0  0  0
    0.4433    4.4136   82.5767 C   0  0  0  0  0  0  0  0  0  0  0  0
   -0.1232    2.0578   83.2139 C   0  0  0  0  0  0  0  0  0  0  0  0
   -0.6847    1.1420   84.1078 C   0  0  0  0  0  0  0  0  0  0  0  0
   -1.3723    2.9025   85.5416 C   0  0  0  0  0  0  0  0  0  0  0  0
   -0.1890    3.3972   83.5211 C   0  0  0  0  0  0  0  0  0  0  0  0
   -1.2920    1.5646   85.2446 C   0  0  0  0  0  0  0  0  0  0  0  0
   -0.7903    3.8144   84.7143 C   0  0  0  0  0  0  0  0  0  0  0  0
   -2.5477    1.4596   87.3142 C   0  0  0  0  0  0  0  0  0  0  0  0
   -1.9517    0.7771   86.1980 O   0  0  0  0  0  0  0  0  0  0  0  0
   -2.0720    5.7928   84.8436 C   0  0  0  0  0  0  0  0  0  0  0  0
   -0.7945    5.1688   84.9021 O   0  0  0  0  0  0  0  0  0  0  0  0
 13 14  2  0  0  0
 13 16  1  0  0  0
 14 17  1  0  0  0
 12 16  1  0  0  0
 12  3  1  0  0  0
 16 18  2  0  0  0
  6  1  2  0  0  0
 17 20  1  0  0  0
 17 15  2  0  0  0
 19 20  1  0  0  0
 18 15  1  0  0  0
 18 22  1  0  0  0
  1  3  1  0  0  0
  1  4  1  0  0  0
 22 21  1  0  0  0
  3  7  1  0  0  0
  3  5  1  0  0  0
  4  2  1  0  0  0
  5  2  1  0  0  0
  2  8  2  0  0  0
  4  9  1  0  0  0
  5 10  1  0  0  0
  7 11  1  0  0  0
M  END
> <minimizedAffinity>
-6.28260

$$$$
5VGY_9AA_A_304


 22 23  0  0  0  0  0  0  0  0999 V2000
   -0.4942    1.6385   84.7671 C   0  0  0  0  0  0  0  0  0  0  0  0
   -0.9849    2.0231   82.6643 C   0  0  0  0  0  0  0  0  0  0  0  0
   -0.9458    3.0241   84.7076 C   0  0  0  0  0  0  0  0  0  0  0  0
   -0.5299    1.0283   83.5192 N   0  0  0  0  0  0  0  0  0  0  0  0
   -1.4586    3.0870   83.4456 N   0  0  0  0  0  0  0  0  0  0  0  0
   -0.0642    1.0137   85.7457 O   0  0  0  0  0  0  0  0  0  0  0  0
   -2.1563    3.1792   85.5220 O   0  0  0  0  0  0  0  0  0  0  0  0
   -0.8987    1.9988   81.0052 S   0  0  0  0  0  0  0  0  0  0  0  0
   -0.2876    0.1013   83.2927 H   0  0  0  0  0  0  0  0  0  0  0  0
   -2.0766    3.7838   83.1266 H   0  0  0  0  0  0  0  0  0  0  0  0
   -1.9192    3.1507   86.4622 H   0  0  0  0  0  0  0  0  0  0  0  0
    0.0857    3.9617   85.1960 C   0  0  0  0  0  0  0  0  0  0  0  0
    1.6771    5.0441   83.5920 C   0  0  0  0  0  0  0  0  0  0  0  0
    2.0144    6.0997   82.7405 C   0  0  0  0  0  0  0  0  0  0  0  0
    0.0217    7.2520   83.3146 C   0  0  0  0  0  0  0  0  0  0  0  0
    0.4904    5.1148   84.2843 C   0  0  0  0  0  0  0  0  0  0  0  0
    1.1975    7.1746   82.6100 C   0  0  0  0  0  0  0  0  0  0  0  0
   -0.3569    6.2159   84.1133 C   0  0  0  0  0  0  0  0  0  0  0  0
    0.2974    9.1741   81.5790 C   0  0  0  0  0  0  0  0  0  0  0  0
    1.4288    8.3298   81.8509 O   0  0  0  0  0  0  0  0  0  0  0  0
   -2.7160    6.3040   84.1269 C   0  0  0  0  0  0  0  0  0  0  0  0
   -1.5027    6.1689   84.8580 O   0  0  0  0  0  0  0  0  0  0  0  0
 13 14  2  0  0  0
 13 16  1  0  0  0
 14 17  1  0  0  0
 12 16  1  0  0  0
 12  3  1  0  0  0
 16 18  2  0  0  0
  6  1  2  0  0  0
 17 20  1  0  0  0
 17 15  2  0  0  0
 19 20  1  0  0  0
 18 15  1  0  0  0
 18 22  1  0  0  0
  1  3  1  0  0  0
  1  4  1  0  0  0
 22 21  1  0  0  0
  3  7  1  0  0  0
  3  5  1  0  0  0
  4  2  1  0  0  0
  5  2  1  0  0  0
  2  8  2  0  0  0
  4  9  1  0  0  0
  5 10  1  0  0  0
  7 11  1  0  0  0
M  END
> <minimizedAffinity>
-6.09999

$$$$
