3RUX_BS5_A_1001


 46 50  0  0  0  0  0  0  0  0999 V2000
   -4.3998   -3.6999    7.0707 N   0  0  0  0  0  0  0  0  0  0  0  0
   -5.0313   -3.8439    7.8587 H   0  0  0  0  0  0  0  0  0  0  0  0
   -4.2265   -5.1189    6.3602 S   0  0  0  0  0  0  0  0  0  0  0  0
   -5.4780   -5.4516    5.7448 O   0  0  0  0  0  0  0  0  0  0  0  0
   -3.1936   -5.0235    5.3679 O   0  0  0  0  0  0  0  0  0  0  0  0
   -4.5756   -6.4997    8.4496 C   0  0  0  0  0  0  0  0  0  0  0  0
   -3.8259   -6.1928    7.3831 N   0  0  0  0  0  0  0  0  0  0  0  0
   -5.5718   -5.8805    8.7711 O   0  0  0  0  0  0  0  0  0  0  0  0
   -2.9796   -6.6774    7.2484 H   0  0  0  0  0  0  0  0  0  0  0  0
   -4.1447   -7.6951    9.2715 C   0  0  0  0  0  0  0  0  0  0  0  0
   -3.7732   -7.2651   10.6954 C   0  0  0  0  0  0  0  0  0  0  0  0
   -4.0158   -8.3873   11.7045 C   0  0  0  0  0  0  0  0  0  0  0  0
   -3.5967   -7.9740   13.1105 C   0  0  0  0  0  0  0  0  0  0  0  0
   -0.5815  -10.4553   15.3070 N   0  0  0  0  0  0  0  0  0  0  0  0
   -3.4295   -8.7579   15.7491 S   0  0  0  0  0  0  0  0  0  0  0  0
   -3.5513   -9.1829   14.0399 C   0  0  0  0  0  0  0  0  0  0  0  0
   -1.1390   -9.3165   13.5295 N   0  0  0  0  0  0  0  0  0  0  0  0
   -0.1858   -9.5363   14.4331 C   0  0  0  0  0  0  0  0  0  0  0  0
    0.9002   -8.9673   14.4711 O   0  0  0  0  0  0  0  0  0  0  0  0
   -2.3362  -10.0787   13.8185 C   0  0  0  0  0  0  0  0  0  0  0  0
   -1.9681  -10.8120   15.1098 C   0  0  0  0  0  0  0  0  0  0  0  0
   -2.8101  -10.3197   16.2866 C   0  0  0  0  0  0  0  0  0  0  0  0
   -0.0027  -10.8445   16.0018 H   0  0  0  0  0  0  0  0  0  0  0  0
   -1.0418   -8.7104   12.7598 H   0  0  0  0  0  0  0  0  0  0  0  0
   -3.2499   -2.9855    7.5872 C   0  0  0  0  0  0  0  0  0  0  0  0
   -4.6347   -0.0303    9.1508 C   0  0  0  0  0  0  0  0  0  0  0  0
   -3.2821    0.5397    8.7790 C   0  0  0  0  0  0  0  0  0  0  0  0
   -3.5064    1.5005    7.7418 O   0  0  0  0  0  0  0  0  0  0  0  0
   -2.5156   -0.6257    8.1915 C   0  0  0  0  0  0  0  0  0  0  0  0
   -1.6551   -0.1844    7.1391 O   0  0  0  0  0  0  0  0  0  0  0  0
   -3.6195   -1.5112    7.6527 C   0  0  0  0  0  0  0  0  0  0  0  0
   -4.7275   -1.3174    8.5347 O   0  0  0  0  0  0  0  0  0  0  0  0
   -3.9738    1.0774    7.0046 H   0  0  0  0  0  0  0  0  0  0  0  0
   -2.1789    0.2753    6.4644 H   0  0  0  0  0  0  0  0  0  0  0  0
   -7.8186   -0.8303   13.2078 N   0  0  0  0  0  0  0  0  0  0  0  0
   -8.1006   -0.6403   11.9058 C   0  0  0  0  0  0  0  0  0  0  0  0
   -7.1596   -0.4359   10.9641 N   0  0  0  0  0  0  0  0  0  0  0  0
   -5.8482   -0.4265   11.2913 C   0  0  0  0  0  0  0  0  0  0  0  0
   -5.4585   -0.6259   12.6926 C   0  0  0  0  0  0  0  0  0  0  0  0
   -6.5495   -0.8376   13.6701 C   0  0  0  0  0  0  0  0  0  0  0  0
   -6.2829   -1.0357   14.9842 N   0  0  0  0  0  0  0  0  0  0  0  0
   -4.1118   -0.5632   12.7348 N   0  0  0  0  0  0  0  0  0  0  0  0
   -3.6808   -0.3362   11.4655 C   0  0  0  0  0  0  0  0  0  0  0  0
   -4.7183   -0.2571   10.6094 N   0  0  0  0  0  0  0  0  0  0  0  0
   -7.0210   -1.1750   15.6207 H   0  0  0  0  0  0  0  0  0  0  0  0
   -5.3512   -1.0404   15.3023 H   0  0  0  0  0  0  0  0  0  0  0  0
  1  3  1  0  0  0
  7  3  1  0  0  0
  3  4  2  0  0  0
  3  5  2  0  0  0
 40 35  2  0  0  0
 35 36  1  0  0  0
 36 37  2  0  0  0
 38 37  1  0  0  0
 39 38  2  0  0  0
 38 44  1  0  0  0
 40 39  1  0  0  0
 42 39  1  0  0  0
 41 40  1  0  0  0
 42 43  2  0  0  0
 43 44  1  0  0  0
 44 26  1  0  0  0
 26 27  1  0  0  0
 26 32  1  0  0  0
 14 21  1  0  0  0
 14 18  1  0  0  0
 22 15  1  0  0  0
 15 16  1  0  0  0
 27 28  1  0  0  0
 27 29  1  0  0  0
 16 20  1  0  0  0
 16 13  1  0  0  0
 18 17  1  0  0  0
 20 17  1  0  0  0
 29 30  1  0  0  0
 29 31  1  0  0  0
 19 18  2  0  0  0
 32 31  1  0  0  0
 31 25  1  0  0  0
 21 20  1  0  0  0
 25  1  1  0  0  0
 22 21  1  0  0  0
 13 12  1  0  0  0
 12 11  1  0  0  0
 11 10  1  0  0  0
 10  6  1  0  0  0
  8  6  2  0  0  0
  6  7  1  0  0  0
 41 45  1  0  0  0
 41 46  1  0  0  0
 14 23  1  0  0  0
 28 33  1  0  0  0
 17 24  1  0  0  0
 30 34  1  0  0  0
  1  2  1  0  0  0
  7  9  1  0  0  0
M  END
> <minimizedAffinity>
-13.93132

$$$$
3RUX_BS5_A_1001


 46 50  0  0  0  0  0  0  0  0999 V2000
   -4.2904   -3.0015    6.8328 N   0  0  0  0  0  0  0  0  0  0  0  0
   -5.0588   -3.0016    7.5035 H   0  0  0  0  0  0  0  0  0  0  0  0
   -3.1294   -3.8932    7.4695 S   0  0  0  0  0  0  0  0  0  0  0  0
   -2.4306   -4.5297    6.3913 O   0  0  0  0  0  0  0  0  0  0  0  0
   -2.2379   -3.0446    8.2082 O   0  0  0  0  0  0  0  0  0  0  0  0
   -4.3145   -6.0620    8.0041 C   0  0  0  0  0  0  0  0  0  0  0  0
   -3.7140   -4.9422    8.4274 N   0  0  0  0  0  0  0  0  0  0  0  0
   -4.5586   -6.2926    6.8351 O   0  0  0  0  0  0  0  0  0  0  0  0
   -3.6441   -4.7842    9.3966 H   0  0  0  0  0  0  0  0  0  0  0  0
   -4.6840   -7.0839    9.0573 C   0  0  0  0  0  0  0  0  0  0  0  0
   -3.7084   -7.0185   10.2382 C   0  0  0  0  0  0  0  0  0  0  0  0
   -4.0965   -7.9986   11.3450 C   0  0  0  0  0  0  0  0  0  0  0  0
   -3.2387   -7.8033   12.5897 C   0  0  0  0  0  0  0  0  0  0  0  0
   -0.7583  -10.3796   15.2883 N   0  0  0  0  0  0  0  0  0  0  0  0
   -3.5078   -8.4753   15.2506 S   0  0  0  0  0  0  0  0  0  0  0  0
   -3.4154   -8.9688   13.5580 C   0  0  0  0  0  0  0  0  0  0  0  0
   -0.9712   -9.2881   13.4094 N   0  0  0  0  0  0  0  0  0  0  0  0
   -0.1755   -9.5304   14.4494 C   0  0  0  0  0  0  0  0  0  0  0  0
    0.9328   -9.0348   14.6249 O   0  0  0  0  0  0  0  0  0  0  0  0
   -2.2502   -9.9537   13.5478 C   0  0  0  0  0  0  0  0  0  0  0  0
   -2.1250  -10.6505   14.9042 C   0  0  0  0  0  0  0  0  0  0  0  0
   -3.0878  -10.0492   15.9276 C   0  0  0  0  0  0  0  0  0  0  0  0
   -0.3148  -10.7749   16.0733 H   0  0  0  0  0  0  0  0  0  0  0  0
   -0.7210   -8.7258   12.6411 H   0  0  0  0  0  0  0  0  0  0  0  0
   -4.0505   -1.6172    6.4786 C   0  0  0  0  0  0  0  0  0  0  0  0
   -7.0667   -0.4004    8.0653 C   0  0  0  0  0  0  0  0  0  0  0  0
   -6.6208    0.8999    7.4305 C   0  0  0  0  0  0  0  0  0  0  0  0
   -7.5563    1.1962    6.3882 O   0  0  0  0  0  0  0  0  0  0  0  0
   -5.2833    0.5858    6.7955 C   0  0  0  0  0  0  0  0  0  0  0  0
   -5.1135    1.3259    5.5846 O   0  0  0  0  0  0  0  0  0  0  0  0
   -5.3907   -0.8980    6.5125 C   0  0  0  0  0  0  0  0  0  0  0  0
   -6.2098   -1.4266    7.5578 O   0  0  0  0  0  0  0  0  0  0  0  0
   -7.6001    0.4492    5.7710 H   0  0  0  0  0  0  0  0  0  0  0  0
   -5.8491    1.1336    4.9822 H   0  0  0  0  0  0  0  0  0  0  0  0
   -3.5384   -0.5362   11.9083 N   0  0  0  0  0  0  0  0  0  0  0  0
   -3.3741   -0.6070   10.5746 C   0  0  0  0  0  0  0  0  0  0  0  0
   -4.3952   -0.5659    9.6972 N   0  0  0  0  0  0  0  0  0  0  0  0
   -5.6692   -0.4333   10.1286 C   0  0  0  0  0  0  0  0  0  0  0  0
   -5.9318   -0.3503   11.5706 C   0  0  0  0  0  0  0  0  0  0  0  0
   -4.7593   -0.4091   12.4719 C   0  0  0  0  0  0  0  0  0  0  0  0
   -4.9064   -0.3340   13.8172 N   0  0  0  0  0  0  0  0  0  0  0  0
   -7.2675   -0.2313   11.7167 N   0  0  0  0  0  0  0  0  0  0  0  0
   -7.8101   -0.2438   10.4703 C   0  0  0  0  0  0  0  0  0  0  0  0
   -6.8544   -0.3627    9.5279 N   0  0  0  0  0  0  0  0  0  0  0  0
   -4.1154   -0.3747   14.4019 H   0  0  0  0  0  0  0  0  0  0  0  0
   -5.8043   -0.2388   14.2097 H   0  0  0  0  0  0  0  0  0  0  0  0
  1  3  1  0  0  0
  7  3  1  0  0  0
  3  4  2  0  0  0
  3  5  2  0  0  0
 40 35  2  0  0  0
 35 36  1  0  0  0
 36 37  2  0  0  0
 38 37  1  0  0  0
 39 38  2  0  0  0
 38 44  1  0  0  0
 40 39  1  0  0  0
 42 39  1  0  0  0
 41 40  1  0  0  0
 42 43  2  0  0  0
 43 44  1  0  0  0
 44 26  1  0  0  0
 26 27  1  0  0  0
 26 32  1  0  0  0
 14 21  1  0  0  0
 14 18  1  0  0  0
 22 15  1  0  0  0
 15 16  1  0  0  0
 27 28  1  0  0  0
 27 29  1  0  0  0
 16 20  1  0  0  0
 16 13  1  0  0  0
 18 17  1  0  0  0
 20 17  1  0  0  0
 29 30  1  0  0  0
 29 31  1  0  0  0
 19 18  2  0  0  0
 32 31  1  0  0  0
 31 25  1  0  0  0
 21 20  1  0  0  0
 25  1  1  0  0  0
 22 21  1  0  0  0
 13 12  1  0  0  0
 12 11  1  0  0  0
 11 10  1  0  0  0
 10  6  1  0  0  0
  8  6  2  0  0  0
  6  7  1  0  0  0
 41 45  1  0  0  0
 41 46  1  0  0  0
 14 23  1  0  0  0
 28 33  1  0  0  0
 17 24  1  0  0  0
 30 34  1  0  0  0
  1  2  1  0  0  0
  7  9  1  0  0  0
M  END
> <minimizedAffinity>
-11.62012

$$$$
3RUX_BS5_A_1001


 46 50  0  0  0  0  0  0  0  0999 V2000
   -4.5630   -3.6789    6.8969 N   0  0  0  0  0  0  0  0  0  0  0  0
   -4.9594   -3.8579    7.8195 H   0  0  0  0  0  0  0  0  0  0  0  0
   -4.3404   -5.1036    6.2120 S   0  0  0  0  0  0  0  0  0  0  0  0
   -5.5867   -5.5026    5.6260 O   0  0  0  0  0  0  0  0  0  0  0  0
   -3.3298   -4.9844    5.1994 O   0  0  0  0  0  0  0  0  0  0  0  0
   -4.5241   -6.3578    8.4000 C   0  0  0  0  0  0  0  0  0  0  0  0
   -3.8761   -6.1377    7.2487 N   0  0  0  0  0  0  0  0  0  0  0  0
   -5.4604   -5.6828    8.7834 O   0  0  0  0  0  0  0  0  0  0  0  0
   -3.0652   -6.6625    7.0583 H   0  0  0  0  0  0  0  0  0  0  0  0
   -4.0542   -7.5249    9.2409 C   0  0  0  0  0  0  0  0  0  0  0  0
   -4.4845   -7.3453   10.7014 C   0  0  0  0  0  0  0  0  0  0  0  0
   -4.0228   -8.5131   11.5728 C   0  0  0  0  0  0  0  0  0  0  0  0
   -3.5307   -8.0340   12.9335 C   0  0  0  0  0  0  0  0  0  0  0  0
   -0.5945  -10.4274   15.3258 N   0  0  0  0  0  0  0  0  0  0  0  0
   -3.4098   -8.6454   15.6198 S   0  0  0  0  0  0  0  0  0  0  0  0
   -3.5218   -9.1797   13.9408 C   0  0  0  0  0  0  0  0  0  0  0  0
   -1.1074   -9.3970   13.4706 N   0  0  0  0  0  0  0  0  0  0  0  0
   -0.1693   -9.5766   14.3985 C   0  0  0  0  0  0  0  0  0  0  0  0
    0.9283   -9.0291   14.4126 O   0  0  0  0  0  0  0  0  0  0  0  0
   -2.3240  -10.1132   13.7939 C   0  0  0  0  0  0  0  0  0  0  0  0
   -1.9862  -10.7673   15.1352 C   0  0  0  0  0  0  0  0  0  0  0  0
   -2.8304  -10.1810   16.2665 C   0  0  0  0  0  0  0  0  0  0  0  0
   -0.0321  -10.7820   16.0519 H   0  0  0  0  0  0  0  0  0  0  0  0
   -0.9886   -8.8452   12.6639 H   0  0  0  0  0  0  0  0  0  0  0  0
   -3.4514   -2.7705    7.0934 C   0  0  0  0  0  0  0  0  0  0  0  0
   -2.8811   -0.0449    9.4045 C   0  0  0  0  0  0  0  0  0  0  0  0
   -4.2958    0.3120    8.9996 C   0  0  0  0  0  0  0  0  0  0  0  0
   -5.1269    0.0783   10.1415 O   0  0  0  0  0  0  0  0  0  0  0  0
   -4.6613   -0.6946    7.9300 C   0  0  0  0  0  0  0  0  0  0  0  0
   -6.0472   -1.0349    8.0100 O   0  0  0  0  0  0  0  0  0  0  0  0
   -3.7910   -1.8830    8.2814 C   0  0  0  0  0  0  0  0  0  0  0  0
   -2.5987   -1.3290    8.8422 O   0  0  0  0  0  0  0  0  0  0  0  0
   -5.0194   -0.8392   10.4373 H   0  0  0  0  0  0  0  0  0  0  0  0
   -6.2474   -1.3688    8.8984 H   0  0  0  0  0  0  0  0  0  0  0  0
   -0.7518    4.7109    9.6961 N   0  0  0  0  0  0  0  0  0  0  0  0
   -1.6872    4.1285   10.4686 C   0  0  0  0  0  0  0  0  0  0  0  0
   -2.1491    2.8802   10.2621 N   0  0  0  0  0  0  0  0  0  0  0  0
   -1.6692    2.1272    9.2475 C   0  0  0  0  0  0  0  0  0  0  0  0
   -0.6464    2.6918    8.3585 C   0  0  0  0  0  0  0  0  0  0  0  0
   -0.1940    4.0715    8.6451 C   0  0  0  0  0  0  0  0  0  0  0  0
    0.7509    4.6712    7.8805 N   0  0  0  0  0  0  0  0  0  0  0  0
   -0.3579    1.7424    7.4447 N   0  0  0  0  0  0  0  0  0  0  0  0
   -1.1378    0.6649    7.7257 C   0  0  0  0  0  0  0  0  0  0  0  0
   -1.9157    0.8982    8.8009 N   0  0  0  0  0  0  0  0  0  0  0  0
    1.0401    5.5897    8.0855 H   0  0  0  0  0  0  0  0  0  0  0  0
    1.1481    4.1883    7.1200 H   0  0  0  0  0  0  0  0  0  0  0  0
  1  3  1  0  0  0
  7  3  1  0  0  0
  3  4  2  0  0  0
  3  5  2  0  0  0
 40 35  2  0  0  0
 35 36  1  0  0  0
 36 37  2  0  0  0
 38 37  1  0  0  0
 39 38  2  0  0  0
 38 44  1  0  0  0
 40 39  1  0  0  0
 42 39  1  0  0  0
 41 40  1  0  0  0
 42 43  2  0  0  0
 43 44  1  0  0  0
 44 26  1  0  0  0
 26 27  1  0  0  0
 26 32  1  0  0  0
 14 21  1  0  0  0
 14 18  1  0  0  0
 22 15  1  0  0  0
 15 16  1  0  0  0
 27 28  1  0  0  0
 27 29  1  0  0  0
 16 20  1  0  0  0
 16 13  1  0  0  0
 18 17  1  0  0  0
 20 17  1  0  0  0
 29 30  1  0  0  0
 29 31  1  0  0  0
 19 18  2  0  0  0
 32 31  1  0  0  0
 31 25  1  0  0  0
 21 20  1  0  0  0
 25  1  1  0  0  0
 22 21  1  0  0  0
 13 12  1  0  0  0
 12 11  1  0  0  0
 11 10  1  0  0  0
 10  6  1  0  0  0
  8  6  2  0  0  0
  6  7  1  0  0  0
 41 45  1  0  0  0
 41 46  1  0  0  0
 14 23  1  0  0  0
 28 33  1  0  0  0
 17 24  1  0  0  0
 30 34  1  0  0  0
  1  2  1  0  0  0
  7  9  1  0  0  0
M  END
> <minimizedAffinity>
-11.26540

$$$$
