4RUZ_3W8_A_302


 15 15  0  0  0  0  0  0  0  0999 V2000
   -4.6542    1.5917   15.5182 C   0  0  0  0  0  0  0  0  0  0  0  0
   -4.8764    2.9499   14.9216 C   0  0  0  0  0  0  0  0  0  0  0  0
   -4.8021    3.1360   13.5871 C   0  0  0  0  0  0  0  0  0  0  0  0
   -4.4844    1.9598   12.7076 C   0  0  0  0  0  0  0  0  0  0  0  0
   -4.2885    0.7289   13.2356 C   0  0  0  0  0  0  0  0  0  0  0  0
   -4.3644    0.5349   14.7223 C   0  0  0  0  0  0  0  0  0  0  0  0
   -4.4180    2.1968   10.9715 S   0  0  0  0  0  0  0  0  0  0  0  0
   -5.1456    3.4150   10.6852 O   0  0  0  0  0  0  0  0  0  0  0  0
   -3.0651    2.3732   10.5274 O   0  0  0  0  0  0  0  0  0  0  0  0
   -5.1345    0.9183   10.2599 N   0  0  0  0  0  0  0  0  0  0  0  0
   -4.6079    0.0712   10.4731 H   0  0  0  0  0  0  0  0  0  0  0  0
   -5.1568    1.0596    9.2499 H   0  0  0  0  0  0  0  0  0  0  0  0
   -4.7459    1.4570   16.9126 O   0  0  0  0  0  0  0  0  0  0  0  0
   -7.0567    1.1843   17.1627 C   0  0  0  0  0  0  0  0  0  0  0  0
   -5.8719    2.0532   17.5107 C   0  0  0  0  0  0  0  0  0  0  0  0
 14 15  1  0  0  0
 15 13  1  0  0  0
 13  1  1  0  0  0
  1  6  2  0  0  0
  1  2  1  0  0  0
  6  5  1  0  0  0
  2  3  2  0  0  0
  5  4  2  0  0  0
  3  4  1  0  0  0
  4  7  1  0  0  0
 10  7  1  0  0  0
  7  9  2  0  0  0
  7  8  2  0  0  0
 10 11  1  0  0  0
 10 12  1  0  0  0
M  END
> <minimizedAffinity>
-6.34224

$$$$
4RUZ_3W8_A_302


 15 15  0  0  0  0  0  0  0  0999 V2000
   -4.6847    1.7958   15.5319 C   0  0  0  0  0  0  0  0  0  0  0  0
   -4.3732    0.6144   14.6617 C   0  0  0  0  0  0  0  0  0  0  0  0
   -4.2987    0.7478   13.3209 C   0  0  0  0  0  0  0  0  0  0  0  0
   -4.5411    2.1000   12.7122 C   0  0  0  0  0  0  0  0  0  0  0  0
   -4.8165    3.1737   13.4892 C   0  0  0  0  0  0  0  0  0  0  0  0
   -4.9062    3.0122   14.9790 C   0  0  0  0  0  0  0  0  0  0  0  0
   -4.4140    2.2783   10.9724 S   0  0  0  0  0  0  0  0  0  0  0  0
   -5.1034    3.5025   10.6237 O   0  0  0  0  0  0  0  0  0  0  0  0
   -3.0439    2.4098   10.5672 O   0  0  0  0  0  0  0  0  0  0  0  0
   -5.1372    0.9935   10.2792 N   0  0  0  0  0  0  0  0  0  0  0  0
   -4.6376    0.1423   10.5365 H   0  0  0  0  0  0  0  0  0  0  0  0
   -5.1240    1.1021    9.2651 H   0  0  0  0  0  0  0  0  0  0  0  0
   -4.7476    1.5984   16.9204 O   0  0  0  0  0  0  0  0  0  0  0  0
   -7.0300    1.1398   17.1596 C   0  0  0  0  0  0  0  0  0  0  0  0
   -5.9115    2.0748   17.5525 C   0  0  0  0  0  0  0  0  0  0  0  0
 14 15  1  0  0  0
 15 13  1  0  0  0
 13  1  1  0  0  0
  1  6  2  0  0  0
  1  2  1  0  0  0
  6  5  1  0  0  0
  2  3  2  0  0  0
  5  4  2  0  0  0
  3  4  1  0  0  0
  4  7  1  0  0  0
 10  7  1  0  0  0
  7  9  2  0  0  0
  7  8  2  0  0  0
 10 11  1  0  0  0
 10 12  1  0  0  0
M  END
> <minimizedAffinity>
-6.25867

$$$$
4RUZ_3W8_A_302


 15 15  0  0  0  0  0  0  0  0999 V2000
   -4.5133    4.8927   14.5097 C   0  0  0  0  0  0  0  0  0  0  0  0
   -3.6671    3.7284   14.9318 C   0  0  0  0  0  0  0  0  0  0  0  0
   -4.1786    2.7523   15.7107 C   0  0  0  0  0  0  0  0  0  0  0  0
   -5.6100    2.8551   16.1557 C   0  0  0  0  0  0  0  0  0  0  0  0
   -6.3839    3.8984   15.7750 C   0  0  0  0  0  0  0  0  0  0  0  0
   -5.8021    4.9835   14.9161 C   0  0  0  0  0  0  0  0  0  0  0  0
   -6.2822    1.5709   17.1425 S   0  0  0  0  0  0  0  0  0  0  0  0
   -6.2054    2.0138   18.5185 O   0  0  0  0  0  0  0  0  0  0  0  0
   -7.6634    1.3470   16.8249 O   0  0  0  0  0  0  0  0  0  0  0  0
   -5.3775    0.2349   16.9170 N   0  0  0  0  0  0  0  0  0  0  0  0
   -5.4447   -0.0609   15.9431 H   0  0  0  0  0  0  0  0  0  0  0  0
   -5.7168   -0.5118   17.5233 H   0  0  0  0  0  0  0  0  0  0  0  0
   -3.9288    5.8775   13.6977 O   0  0  0  0  0  0  0  0  0  0  0  0
   -2.3675    7.4616   14.4256 C   0  0  0  0  0  0  0  0  0  0  0  0
   -2.5450    6.0687   13.8706 C   0  0  0  0  0  0  0  0  0  0  0  0
 14 15  1  0  0  0
 15 13  1  0  0  0
 13  1  1  0  0  0
  1  6  2  0  0  0
  1  2  1  0  0  0
  6  5  1  0  0  0
  2  3  2  0  0  0
  5  4  2  0  0  0
  3  4  1  0  0  0
  4  7  1  0  0  0
 10  7  1  0  0  0
  7  9  2  0  0  0
  7  8  2  0  0  0
 10 11  1  0  0  0
 10 12  1  0  0  0
M  END
> <minimizedAffinity>
-6.13037

$$$$
4RUZ_3W8_A_302


 15 15  0  0  0  0  0  0  0  0999 V2000
   -4.9879    2.1730   14.9928 C   0  0  0  0  0  0  0  0  0  0  0  0
   -4.4777    0.7705   14.8420 C   0  0  0  0  0  0  0  0  0  0  0  0
   -4.1406    0.2876   13.6278 C   0  0  0  0  0  0  0  0  0  0  0  0
   -4.2927    1.1767   12.4261 C   0  0  0  0  0  0  0  0  0  0  0  0
   -4.7461    2.4459   12.5523 C   0  0  0  0  0  0  0  0  0  0  0  0
   -5.1270    2.9699   13.9065 C   0  0  0  0  0  0  0  0  0  0  0  0
   -3.8257    0.5582   10.8531 S   0  0  0  0  0  0  0  0  0  0  0  0
   -2.7740    1.4206   10.3575 O   0  0  0  0  0  0  0  0  0  0  0  0
   -3.2963   -0.7711   10.9591 O   0  0  0  0  0  0  0  0  0  0  0  0
   -5.1294    0.6225    9.8782 N   0  0  0  0  0  0  0  0  0  0  0  0
   -5.8579    0.0092   10.2437 H   0  0  0  0  0  0  0  0  0  0  0  0
   -4.8679    0.3183    8.9403 H   0  0  0  0  0  0  0  0  0  0  0  0
   -5.3214    2.6224   16.2803 O   0  0  0  0  0  0  0  0  0  0  0  0
   -7.3208    1.6088   16.9523 C   0  0  0  0  0  0  0  0  0  0  0  0
   -6.6843    2.8997   16.4960 C   0  0  0  0  0  0  0  0  0  0  0  0
 14 15  1  0  0  0
 15 13  1  0  0  0
 13  1  1  0  0  0
  1  6  2  0  0  0
  1  2  1  0  0  0
  6  5  1  0  0  0
  2  3  2  0  0  0
  5  4  2  0  0  0
  3  4  1  0  0  0
  4  7  1  0  0  0
 10  7  1  0  0  0
  7  9  2  0  0  0
  7  8  2  0  0  0
 10 11  1  0  0  0
 10 12  1  0  0  0
M  END
> <minimizedAffinity>
-5.91496

$$$$
4RUZ_3W8_A_302


 15 15  0  0  0  0  0  0  0  0999 V2000
   -4.6012    1.9358   15.6775 C   0  0  0  0  0  0  0  0  0  0  0  0
   -4.4708    0.8328   14.6694 C   0  0  0  0  0  0  0  0  0  0  0  0
   -4.2645    1.1130   13.3655 C   0  0  0  0  0  0  0  0  0  0  0  0
   -4.1755    2.5507   12.9381 C   0  0  0  0  0  0  0  0  0  0  0  0
   -4.2854    3.5532   13.8410 C   0  0  0  0  0  0  0  0  0  0  0  0
   -4.5240    3.2306   15.2876 C   0  0  0  0  0  0  0  0  0  0  0  0
   -3.8772    2.9128   11.2485 S   0  0  0  0  0  0  0  0  0  0  0  0
   -3.7523    1.6444   10.5623 O   0  0  0  0  0  0  0  0  0  0  0  0
   -4.9824    3.6226   10.6713 O   0  0  0  0  0  0  0  0  0  0  0  0
   -2.4880    3.7585   11.1513 N   0  0  0  0  0  0  0  0  0  0  0  0
   -2.5961    4.6473   11.6399 H   0  0  0  0  0  0  0  0  0  0  0  0
   -2.2647    3.9340   10.1716 H   0  0  0  0  0  0  0  0  0  0  0  0
   -4.8130    1.5852   17.0203 O   0  0  0  0  0  0  0  0  0  0  0  0
   -7.1444    1.4550   17.1763 C   0  0  0  0  0  0  0  0  0  0  0  0
   -5.8567    0.6705   17.2550 C   0  0  0  0  0  0  0  0  0  0  0  0
 14 15  1  0  0  0
 15 13  1  0  0  0
 13  1  1  0  0  0
  1  6  2  0  0  0
  1  2  1  0  0  0
  6  5  1  0  0  0
  2  3  2  0  0  0
  5  4  2  0  0  0
  3  4  1  0  0  0
  4  7  1  0  0  0
 10  7  1  0  0  0
  7  9  2  0  0  0
  7  8  2  0  0  0
 10 11  1  0  0  0
 10 12  1  0  0  0
M  END
> <minimizedAffinity>
-5.86721

$$$$
4RUZ_3W8_A_302


 15 15  0  0  0  0  0  0  0  0999 V2000
   -5.6801    3.0126   15.7258 C   0  0  0  0  0  0  0  0  0  0  0  0
   -4.2017    2.7799   15.6259 C   0  0  0  0  0  0  0  0  0  0  0  0
   -3.3941    3.7103   15.0753 C   0  0  0  0  0  0  0  0  0  0  0  0
   -4.0024    4.9823   14.5557 C   0  0  0  0  0  0  0  0  0  0  0  0
   -5.3345    5.2047   14.6470 C   0  0  0  0  0  0  0  0  0  0  0  0
   -6.2249    4.1589   15.2529 C   0  0  0  0  0  0  0  0  0  0  0  0
   -2.9483    6.2034   13.8682 S   0  0  0  0  0  0  0  0  0  0  0  0
   -2.8350    7.2618   14.8492 O   0  0  0  0  0  0  0  0  0  0  0  0
   -1.6353    5.6757   13.6311 O   0  0  0  0  0  0  0  0  0  0  0  0
   -3.6417    6.7575   12.5020 N   0  0  0  0  0  0  0  0  0  0  0  0
   -3.7125    5.9983   11.8245 H   0  0  0  0  0  0  0  0  0  0  0  0
   -3.0725    7.5089   12.1124 H   0  0  0  0  0  0  0  0  0  0  0  0
   -6.4711    2.0105   16.3098 O   0  0  0  0  0  0  0  0  0  0  0  0
   -6.3144    2.3740   18.6163 C   0  0  0  0  0  0  0  0  0  0  0  0
   -5.9575    1.4365   17.4878 C   0  0  0  0  0  0  0  0  0  0  0  0
 14 15  1  0  0  0
 15 13  1  0  0  0
 13  1  1  0  0  0
  1  6  2  0  0  0
  1  2  1  0  0  0
  6  5  1  0  0  0
  2  3  2  0  0  0
  5  4  2  0  0  0
  3  4  1  0  0  0
  4  7  1  0  0  0
 10  7  1  0  0  0
  7  9  2  0  0  0
  7  8  2  0  0  0
 10 11  1  0  0  0
 10 12  1  0  0  0
M  END
> <minimizedAffinity>
-5.24350

$$$$
4RUZ_3W8_A_302


 15 15  0  0  0  0  0  0  0  0999 V2000
   -6.1120    3.3207   15.6591 C   0  0  0  0  0  0  0  0  0  0  0  0
   -6.0047    4.7783   15.3219 C   0  0  0  0  0  0  0  0  0  0  0  0
   -5.0038    5.2316   14.5385 C   0  0  0  0  0  0  0  0  0  0  0  0
   -3.9920    4.2517   14.0152 C   0  0  0  0  0  0  0  0  0  0  0  0
   -4.0837    2.9334   14.3084 C   0  0  0  0  0  0  0  0  0  0  0  0
   -5.1958    2.4412   15.1884 C   0  0  0  0  0  0  0  0  0  0  0  0
   -2.7095    4.8374   12.9726 S   0  0  0  0  0  0  0  0  0  0  0  0
   -2.7922    4.0830   11.7399 O   0  0  0  0  0  0  0  0  0  0  0  0
   -2.8957    6.2246   12.6571 O   0  0  0  0  0  0  0  0  0  0  0  0
   -1.2876    4.5644   13.7195 N   0  0  0  0  0  0  0  0  0  0  0  0
   -1.2488    5.1038   14.5843 H   0  0  0  0  0  0  0  0  0  0  0  0
   -0.5222    4.8475   13.1075 H   0  0  0  0  0  0  0  0  0  0  0  0
   -7.1751    2.9058   16.4768 O   0  0  0  0  0  0  0  0  0  0  0  0
   -6.3071    2.2284   18.5419 C   0  0  0  0  0  0  0  0  0  0  0  0
   -6.9356    1.7562   17.2528 C   0  0  0  0  0  0  0  0  0  0  0  0
 14 15  1  0  0  0
 15 13  1  0  0  0
 13  1  1  0  0  0
  1  6  2  0  0  0
  1  2  1  0  0  0
  6  5  1  0  0  0
  2  3  2  0  0  0
  5  4  2  0  0  0
  3  4  1  0  0  0
  4  7  1  0  0  0
 10  7  1  0  0  0
  7  9  2  0  0  0
  7  8  2  0  0  0
 10 11  1  0  0  0
 10 12  1  0  0  0
M  END
> <minimizedAffinity>
-5.21161

$$$$
4RUZ_3W8_A_302


 15 15  0  0  0  0  0  0  0  0999 V2000
   -3.4016    5.6467   14.0773 C   0  0  0  0  0  0  0  0  0  0  0  0
   -3.4397    5.7135   12.5793 C   0  0  0  0  0  0  0  0  0  0  0  0
   -3.7195    4.6142   11.8483 C   0  0  0  0  0  0  0  0  0  0  0  0
   -3.9848    3.3180   12.5605 C   0  0  0  0  0  0  0  0  0  0  0  0
   -3.9591    3.2487   13.9121 C   0  0  0  0  0  0  0  0  0  0  0  0
   -3.6376    4.4756   14.7153 C   0  0  0  0  0  0  0  0  0  0  0  0
   -4.3781    1.8974   11.6108 S   0  0  0  0  0  0  0  0  0  0  0  0
   -3.4135    1.8315   10.5335 O   0  0  0  0  0  0  0  0  0  0  0  0
   -4.2500    0.7025   12.3947 O   0  0  0  0  0  0  0  0  0  0  0  0
   -5.8856    2.0852   11.0223 N   0  0  0  0  0  0  0  0  0  0  0  0
   -6.5494    2.1294   11.7955 H   0  0  0  0  0  0  0  0  0  0  0  0
   -6.1167    1.2947   10.4206 H   0  0  0  0  0  0  0  0  0  0  0  0
   -3.1070    6.8222   14.7861 O   0  0  0  0  0  0  0  0  0  0  0  0
   -1.7977    8.6992   15.2753 C   0  0  0  0  0  0  0  0  0  0  0  0
   -2.0361    7.5854   14.2842 C   0  0  0  0  0  0  0  0  0  0  0  0
 14 15  1  0  0  0
 15 13  1  0  0  0
 13  1  1  0  0  0
  1  6  2  0  0  0
  1  2  1  0  0  0
  6  5  1  0  0  0
  2  3  2  0  0  0
  5  4  2  0  0  0
  3  4  1  0  0  0
  4  7  1  0  0  0
 10  7  1  0  0  0
  7  9  2  0  0  0
  7  8  2  0  0  0
 10 11  1  0  0  0
 10 12  1  0  0  0
M  END
> <minimizedAffinity>
-5.13548

$$$$
4RUZ_3W8_A_302


 15 15  0  0  0  0  0  0  0  0999 V2000
   -0.8570    3.9163   11.5857 C   0  0  0  0  0  0  0  0  0  0  0  0
   -0.6992    2.5899   10.9034 C   0  0  0  0  0  0  0  0  0  0  0  0
   -1.7543    1.7614   10.7569 C   0  0  0  0  0  0  0  0  0  0  0  0
   -3.0905    2.1867   11.2967 C   0  0  0  0  0  0  0  0  0  0  0  0
   -3.2448    3.3843   11.9084 C   0  0  0  0  0  0  0  0  0  0  0  0
   -2.0624    4.2943   12.0742 C   0  0  0  0  0  0  0  0  0  0  0  0
   -4.4671    1.1226   11.0788 S   0  0  0  0  0  0  0  0  0  0  0  0
   -4.2782    0.4441    9.8141 O   0  0  0  0  0  0  0  0  0  0  0  0
   -4.5180    0.1286   12.1123 O   0  0  0  0  0  0  0  0  0  0  0  0
   -5.8133    2.0396   11.0440 N   0  0  0  0  0  0  0  0  0  0  0  0
   -5.9286    2.5085   11.9425 H   0  0  0  0  0  0  0  0  0  0  0  0
   -6.6237    1.4471   10.8632 H   0  0  0  0  0  0  0  0  0  0  0  0
    0.2748    4.7378   11.7080 O   0  0  0  0  0  0  0  0  0  0  0  0
    1.3573    5.5374    9.7934 C   0  0  0  0  0  0  0  0  0  0  0  0
    1.3392    4.4445   10.8350 C   0  0  0  0  0  0  0  0  0  0  0  0
 14 15  1  0  0  0
 15 13  1  0  0  0
 13  1  1  0  0  0
  1  6  2  0  0  0
  1  2  1  0  0  0
  6  5  1  0  0  0
  2  3  2  0  0  0
  5  4  2  0  0  0
  3  4  1  0  0  0
  4  7  1  0  0  0
 10  7  1  0  0  0
  7  9  2  0  0  0
  7  8  2  0  0  0
 10 11  1  0  0  0
 10 12  1  0  0  0
M  END
> <minimizedAffinity>
-5.11897

$$$$
4RUZ_3W8_A_302


 15 15  0  0  0  0  0  0  0  0999 V2000
   -3.8871    4.9596   12.9434 C   0  0  0  0  0  0  0  0  0  0  0  0
   -3.6007    4.9594   14.4158 C   0  0  0  0  0  0  0  0  0  0  0  0
   -3.7986    3.8480   15.1552 C   0  0  0  0  0  0  0  0  0  0  0  0
   -4.3191    2.6108   14.4797 C   0  0  0  0  0  0  0  0  0  0  0  0
   -4.5745    2.5989   13.1504 C   0  0  0  0  0  0  0  0  0  0  0  0
   -4.3597    3.8435   12.3391 C   0  0  0  0  0  0  0  0  0  0  0  0
   -4.5470    1.1586   15.4358 S   0  0  0  0  0  0  0  0  0  0  0  0
   -4.5934    0.0478   14.5087 O   0  0  0  0  0  0  0  0  0  0  0  0
   -3.4405    0.9487   16.3247 O   0  0  0  0  0  0  0  0  0  0  0  0
   -5.9586    1.2983   16.2372 N   0  0  0  0  0  0  0  0  0  0  0  0
   -5.9059    2.0850   16.8842 H   0  0  0  0  0  0  0  0  0  0  0  0
   -6.1397    0.4406   16.7588 H   0  0  0  0  0  0  0  0  0  0  0  0
   -3.6608    6.1438   12.2242 O   0  0  0  0  0  0  0  0  0  0  0  0
   -2.5516    8.1675   11.8352 C   0  0  0  0  0  0  0  0  0  0  0  0
   -2.8425    7.0968   12.8593 C   0  0  0  0  0  0  0  0  0  0  0  0
 14 15  1  0  0  0
 15 13  1  0  0  0
 13  1  1  0  0  0
  1  6  2  0  0  0
  1  2  1  0  0  0
  6  5  1  0  0  0
  2  3  2  0  0  0
  5  4  2  0  0  0
  3  4  1  0  0  0
  4  7  1  0  0  0
 10  7  1  0  0  0
  7  9  2  0  0  0
  7  8  2  0  0  0
 10 11  1  0  0  0
 10 12  1  0  0  0
M  END
> <minimizedAffinity>
-4.92595

$$$$
