2VQT_15A_A_1865


 22 22  0  0  0  0  0  0  0  0999 V2000
   26.5161   48.3220   -1.6271 C   0  0  0  0  0  0  0  0  0  0  0  0
   27.6665   48.3818   -0.5790 C   0  0  0  0  0  0  0  0  0  0  0  0
   27.2914   49.1479    0.4801 O   0  0  0  0  0  0  0  0  0  0  0  0
   28.2017   46.9753   -0.1365 C   0  0  0  0  0  0  0  0  0  0  0  0
   29.5170   46.9290   -0.0032 O   0  0  0  0  0  0  0  0  0  0  0  0
   27.7434   45.8196   -1.0914 C   0  0  0  0  0  0  0  0  0  0  0  0
   28.4284   44.6473   -0.9952 O   0  0  0  0  0  0  0  0  0  0  0  0
   26.8370   47.4144   -2.6667 N   0  0  0  0  0  0  0  0  0  0  0  0
   27.6367   46.3376   -2.5162 C   0  0  0  0  0  0  0  0  0  0  0  0
   28.2868   45.7281   -3.5266 N   0  0  0  0  0  0  0  0  0  0  0  0
   26.5331   48.7370    0.9239 H   0  0  0  0  0  0  0  0  0  0  0  0
   29.9347   47.0648   -0.8681 H   0  0  0  0  0  0  0  0  0  0  0  0
   29.3437   44.7829   -1.2864 H   0  0  0  0  0  0  0  0  0  0  0  0
   26.4515   47.5801   -3.5573 H   0  0  0  0  0  0  0  0  0  0  0  0
   26.6561   49.7248   -3.4682 O   0  0  0  0  0  0  0  0  0  0  0  0
   26.0840   49.6561   -2.2859 C   0  0  0  0  0  0  0  0  0  0  0  0
   26.4011   50.5535   -3.9032 H   0  0  0  0  0  0  0  0  0  0  0  0
   28.5144   46.2584   -4.8317 C   0  0  0  0  0  0  0  0  0  0  0  0
   29.6508   47.3131   -5.0060 C   0  0  0  0  0  0  0  0  0  0  0  0
   29.3528   48.5110   -4.1986 N   0  0  0  0  0  0  0  0  0  0  0  0
   28.4700   48.9181   -4.5073 H   0  0  0  0  0  0  0  0  0  0  0  0
   30.1013   49.1942   -4.3148 H   0  0  0  0  0  0  0  0  0  0  0  0
 15 16  1  0  0  0
 16  1  1  0  0  0
  1  2  1  0  0  0
  1  8  1  0  0  0
  2  3  1  0  0  0
  2  4  1  0  0  0
  4  5  1  0  0  0
  4  6  1  0  0  0
  6  7  1  0  0  0
  6  9  1  0  0  0
  8  9  1  0  0  0
  9 10  2  0  0  0
 10 18  1  0  0  0
 18 19  1  0  0  0
 19 20  1  0  0  0
 15 17  1  0  0  0
  3 11  1  0  0  0
  5 12  1  0  0  0
  7 13  1  0  0  0
  8 14  1  0  0  0
 20 21  1  0  0  0
 20 22  1  0  0  0
M  END
> <minimizedAffinity>
-8.52210

$$$$
2VQT_15A_A_1865


 22 22  0  0  0  0  0  0  0  0999 V2000
   30.3162   48.6835   -3.5126 C   0  0  0  0  0  0  0  0  0  0  0  0
   30.3466   47.9963   -2.1154 C   0  0  0  0  0  0  0  0  0  0  0  0
   30.4607   48.9349   -1.1379 O   0  0  0  0  0  0  0  0  0  0  0  0
   29.1510   47.0134   -1.8604 C   0  0  0  0  0  0  0  0  0  0  0  0
   29.5044   45.9039   -1.2328 O   0  0  0  0  0  0  0  0  0  0  0  0
   28.3806   46.6358   -3.1724 C   0  0  0  0  0  0  0  0  0  0  0  0
   27.5717   45.5431   -3.1062 O   0  0  0  0  0  0  0  0  0  0  0  0
   30.0550   47.7319   -4.5294 N   0  0  0  0  0  0  0  0  0  0  0  0
   29.3453   46.5985   -4.3461 C   0  0  0  0  0  0  0  0  0  0  0  0
   29.4393   45.5089   -5.1328 N   0  0  0  0  0  0  0  0  0  0  0  0
   29.6787   49.5087   -1.1477 H   0  0  0  0  0  0  0  0  0  0  0  0
   30.1004   45.3883   -1.7984 H   0  0  0  0  0  0  0  0  0  0  0  0
   28.1115   44.7492   -2.9675 H   0  0  0  0  0  0  0  0  0  0  0  0
   30.4149   47.9089   -5.4285 H   0  0  0  0  0  0  0  0  0  0  0  0
   31.7725   50.4226   -3.0307 O   0  0  0  0  0  0  0  0  0  0  0  0
   31.5694   49.4903   -3.9360 C   0  0  0  0  0  0  0  0  0  0  0  0
   32.5540   50.9436   -3.2728 H   0  0  0  0  0  0  0  0  0  0  0  0
   30.4809   45.2225   -6.0652 C   0  0  0  0  0  0  0  0  0  0  0  0
   30.3000   43.9953   -7.0114 C   0  0  0  0  0  0  0  0  0  0  0  0
   29.5638   42.9256   -6.3119 N   0  0  0  0  0  0  0  0  0  0  0  0
   30.0881   42.6356   -5.4864 H   0  0  0  0  0  0  0  0  0  0  0  0
   29.4464   42.1285   -6.9374 H   0  0  0  0  0  0  0  0  0  0  0  0
 15 16  1  0  0  0
 16  1  1  0  0  0
  1  2  1  0  0  0
  1  8  1  0  0  0
  2  3  1  0  0  0
  2  4  1  0  0  0
  4  5  1  0  0  0
  4  6  1  0  0  0
  6  7  1  0  0  0
  6  9  1  0  0  0
  8  9  1  0  0  0
  9 10  2  0  0  0
 10 18  1  0  0  0
 18 19  1  0  0  0
 19 20  1  0  0  0
 15 17  1  0  0  0
  3 11  1  0  0  0
  5 12  1  0  0  0
  7 13  1  0  0  0
  8 14  1  0  0  0
 20 21  1  0  0  0
 20 22  1  0  0  0
M  END
> <minimizedAffinity>
-7.39126

$$$$
2VQT_15A_A_1865


 22 22  0  0  0  0  0  0  0  0999 V2000
   26.7216   48.1953   -2.9754 C   0  0  0  0  0  0  0  0  0  0  0  0
   27.1823   47.1236   -1.9436 C   0  0  0  0  0  0  0  0  0  0  0  0
   26.1050   46.6194   -1.2843 O   0  0  0  0  0  0  0  0  0  0  0  0
   28.0879   45.9973   -2.5531 C   0  0  0  0  0  0  0  0  0  0  0  0
   29.0928   45.6453   -1.7681 O   0  0  0  0  0  0  0  0  0  0  0  0
   28.6499   46.3654   -3.9695 C   0  0  0  0  0  0  0  0  0  0  0  0
   29.7017   45.6249   -4.4147 O   0  0  0  0  0  0  0  0  0  0  0  0
   27.8149   48.6256   -3.7674 N   0  0  0  0  0  0  0  0  0  0  0  0
   28.8905   47.8634   -4.0571 C   0  0  0  0  0  0  0  0  0  0  0  0
   30.0915   48.3533   -4.4213 N   0  0  0  0  0  0  0  0  0  0  0  0
   25.5235   46.1658   -1.9144 H   0  0  0  0  0  0  0  0  0  0  0  0
   29.7029   46.3929   -1.6689 H   0  0  0  0  0  0  0  0  0  0  0  0
   30.4752   45.7921   -3.8538 H   0  0  0  0  0  0  0  0  0  0  0  0
   27.7883   49.5405   -4.1301 H   0  0  0  0  0  0  0  0  0  0  0  0
   26.4028   49.6210   -1.1745 O   0  0  0  0  0  0  0  0  0  0  0  0
   26.0174   49.4595   -2.4216 C   0  0  0  0  0  0  0  0  0  0  0  0
   25.9749   50.4083   -0.8032 H   0  0  0  0  0  0  0  0  0  0  0  0
   30.5420   49.6984   -4.2665 C   0  0  0  0  0  0  0  0  0  0  0  0
   31.9238   49.9339   -3.5816 C   0  0  0  0  0  0  0  0  0  0  0  0
   32.0211   51.3291   -3.1127 N   0  0  0  0  0  0  0  0  0  0  0  0
   31.9308   51.9619   -3.9075 H   0  0  0  0  0  0  0  0  0  0  0  0
   32.9251   51.4745   -2.6633 H   0  0  0  0  0  0  0  0  0  0  0  0
 15 16  1  0  0  0
 16  1  1  0  0  0
  1  2  1  0  0  0
  1  8  1  0  0  0
  2  3  1  0  0  0
  2  4  1  0  0  0
  4  5  1  0  0  0
  4  6  1  0  0  0
  6  7  1  0  0  0
  6  9  1  0  0  0
  8  9  1  0  0  0
  9 10  2  0  0  0
 10 18  1  0  0  0
 18 19  1  0  0  0
 19 20  1  0  0  0
 15 17  1  0  0  0
  3 11  1  0  0  0
  5 12  1  0  0  0
  7 13  1  0  0  0
  8 14  1  0  0  0
 20 21  1  0  0  0
 20 22  1  0  0  0
M  END
> <minimizedAffinity>
-7.14355

$$$$
2VQT_15A_A_1865


 22 22  0  0  0  0  0  0  0  0999 V2000
   29.6108   48.0377   -1.5169 C   0  0  0  0  0  0  0  0  0  0  0  0
   29.4076   46.7504   -0.6643 C   0  0  0  0  0  0  0  0  0  0  0  0
   29.9009   46.9397    0.5888 O   0  0  0  0  0  0  0  0  0  0  0  0
   27.9315   46.2202   -0.6492 C   0  0  0  0  0  0  0  0  0  0  0  0
   27.8430   44.9024   -0.7245 O   0  0  0  0  0  0  0  0  0  0  0  0
   27.0422   46.8576   -1.7719 C   0  0  0  0  0  0  0  0  0  0  0  0
   25.8751   46.2175   -2.0563 O   0  0  0  0  0  0  0  0  0  0  0  0
   28.9760   47.9054   -2.7767 N   0  0  0  0  0  0  0  0  0  0  0  0
   27.8875   47.1401   -3.0030 C   0  0  0  0  0  0  0  0  0  0  0  0
   27.5322   46.6651   -4.2126 N   0  0  0  0  0  0  0  0  0  0  0  0
   29.4023   47.6456    1.0293 H   0  0  0  0  0  0  0  0  0  0  0  0
   28.1783   44.6045   -1.5846 H   0  0  0  0  0  0  0  0  0  0  0  0
   26.0685   45.3470   -2.4380 H   0  0  0  0  0  0  0  0  0  0  0  0
   29.3536   48.4043   -3.5367 H   0  0  0  0  0  0  0  0  0  0  0  0
   31.0816   49.8145   -1.7562 O   0  0  0  0  0  0  0  0  0  0  0  0
   31.0677   48.4994   -1.7720 C   0  0  0  0  0  0  0  0  0  0  0  0
   31.9851   50.1302   -1.9140 H   0  0  0  0  0  0  0  0  0  0  0  0
   28.3577   46.5997   -5.3747 C   0  0  0  0  0  0  0  0  0  0  0  0
   29.5041   45.5417   -5.4003 C   0  0  0  0  0  0  0  0  0  0  0  0
   30.7667   46.1579   -4.9509 N   0  0  0  0  0  0  0  0  0  0  0  0
   31.0098   46.9280   -5.5740 H   0  0  0  0  0  0  0  0  0  0  0  0
   31.5103   45.4598   -4.9670 H   0  0  0  0  0  0  0  0  0  0  0  0
 15 16  1  0  0  0
 16  1  1  0  0  0
  1  2  1  0  0  0
  1  8  1  0  0  0
  2  3  1  0  0  0
  2  4  1  0  0  0
  4  5  1  0  0  0
  4  6  1  0  0  0
  6  7  1  0  0  0
  6  9  1  0  0  0
  8  9  1  0  0  0
  9 10  2  0  0  0
 10 18  1  0  0  0
 18 19  1  0  0  0
 19 20  1  0  0  0
 15 17  1  0  0  0
  3 11  1  0  0  0
  5 12  1  0  0  0
  7 13  1  0  0  0
  8 14  1  0  0  0
 20 21  1  0  0  0
 20 22  1  0  0  0
M  END
> <minimizedAffinity>
-6.81911

$$$$
2VQT_15A_A_1865


 22 22  0  0  0  0  0  0  0  0999 V2000
   28.5925   47.7561   -3.2687 C   0  0  0  0  0  0  0  0  0  0  0  0
   28.6765   46.2422   -3.6241 C   0  0  0  0  0  0  0  0  0  0  0  0
   27.5547   45.6017   -3.1988 O   0  0  0  0  0  0  0  0  0  0  0  0
   28.9887   45.9566   -5.1345 C   0  0  0  0  0  0  0  0  0  0  0  0
   29.8351   44.9568   -5.3188 O   0  0  0  0  0  0  0  0  0  0  0  0
   29.5152   47.2201   -5.8987 C   0  0  0  0  0  0  0  0  0  0  0  0
   30.1315   46.9933   -7.0909 O   0  0  0  0  0  0  0  0  0  0  0  0
   29.6865   48.4603   -3.8300 N   0  0  0  0  0  0  0  0  0  0  0  0
   30.3305   48.0913   -4.9574 C   0  0  0  0  0  0  0  0  0  0  0  0
   31.5869   48.4639   -5.2700 N   0  0  0  0  0  0  0  0  0  0  0  0
   26.7831   45.9545   -3.6689 H   0  0  0  0  0  0  0  0  0  0  0  0
   30.7014   45.1950   -4.9531 H   0  0  0  0  0  0  0  0  0  0  0  0
   30.9559   46.5046   -6.9409 H   0  0  0  0  0  0  0  0  0  0  0  0
   29.9973   49.2718   -3.3674 H   0  0  0  0  0  0  0  0  0  0  0  0
   29.6266   48.7570   -1.4503 O   0  0  0  0  0  0  0  0  0  0  0  0
   28.5141   48.1311   -1.7674 C   0  0  0  0  0  0  0  0  0  0  0  0
   29.6029   49.0035   -0.5125 H   0  0  0  0  0  0  0  0  0  0  0  0
   32.5542   49.0180   -4.3794 C   0  0  0  0  0  0  0  0  0  0  0  0
   32.4728   50.5444   -4.0670 C   0  0  0  0  0  0  0  0  0  0  0  0
   31.6418   50.7686   -2.8691 N   0  0  0  0  0  0  0  0  0  0  0  0
   30.7010   50.4119   -3.0363 H   0  0  0  0  0  0  0  0  0  0  0  0
   31.5960   51.7678   -2.6691 H   0  0  0  0  0  0  0  0  0  0  0  0
 15 16  1  0  0  0
 16  1  1  0  0  0
  1  2  1  0  0  0
  1  8  1  0  0  0
  2  3  1  0  0  0
  2  4  1  0  0  0
  4  5  1  0  0  0
  4  6  1  0  0  0
  6  7  1  0  0  0
  6  9  1  0  0  0
  8  9  1  0  0  0
  9 10  2  0  0  0
 10 18  1  0  0  0
 18 19  1  0  0  0
 19 20  1  0  0  0
 15 17  1  0  0  0
  3 11  1  0  0  0
  5 12  1  0  0  0
  7 13  1  0  0  0
  8 14  1  0  0  0
 20 21  1  0  0  0
 20 22  1  0  0  0
M  END
> <minimizedAffinity>
-6.59372

$$$$
2VQT_15A_A_1865


 22 22  0  0  0  0  0  0  0  0999 V2000
   29.2718   46.8219   -2.4361 C   0  0  0  0  0  0  0  0  0  0  0  0
   29.5697   48.3161   -2.1135 C   0  0  0  0  0  0  0  0  0  0  0  0
   29.0452   48.6441   -0.9024 O   0  0  0  0  0  0  0  0  0  0  0  0
   31.0845   48.7057   -2.2315 C   0  0  0  0  0  0  0  0  0  0  0  0
   31.2834   49.8901   -2.7861 O   0  0  0  0  0  0  0  0  0  0  0  0
   31.9329   47.6331   -2.9979 C   0  0  0  0  0  0  0  0  0  0  0  0
   33.1530   48.0349   -3.4479 O   0  0  0  0  0  0  0  0  0  0  0  0
   29.9326   46.4286   -3.6261 N   0  0  0  0  0  0  0  0  0  0  0  0
   31.0841   46.9735   -4.0722 C   0  0  0  0  0  0  0  0  0  0  0  0
   31.4942   46.9360   -5.3549 N   0  0  0  0  0  0  0  0  0  0  0  0
   29.4772   48.1195   -0.2102 H   0  0  0  0  0  0  0  0  0  0  0  0
   30.9859   49.8690   -3.7091 H   0  0  0  0  0  0  0  0  0  0  0  0
   33.0381   48.7116   -4.1333 H   0  0  0  0  0  0  0  0  0  0  0  0
   29.5252   45.7108   -4.1628 H   0  0  0  0  0  0  0  0  0  0  0  0
   27.7255   45.3763   -3.3830 O   0  0  0  0  0  0  0  0  0  0  0  0
   27.7851   46.4049   -2.5653 C   0  0  0  0  0  0  0  0  0  0  0  0
   26.8025   45.0947   -3.4814 H   0  0  0  0  0  0  0  0  0  0  0  0
   30.6930   46.6225   -6.4933 C   0  0  0  0  0  0  0  0  0  0  0  0
   30.4612   45.1177   -6.8341 C   0  0  0  0  0  0  0  0  0  0  0  0
   29.4282   44.5544   -5.9446 N   0  0  0  0  0  0  0  0  0  0  0  0
   29.7346   44.6332   -4.9749 H   0  0  0  0  0  0  0  0  0  0  0  0
   29.2797   43.5720   -6.1754 H   0  0  0  0  0  0  0  0  0  0  0  0
 15 16  1  0  0  0
 16  1  1  0  0  0
  1  2  1  0  0  0
  1  8  1  0  0  0
  2  3  1  0  0  0
  2  4  1  0  0  0
  4  5  1  0  0  0
  4  6  1  0  0  0
  6  7  1  0  0  0
  6  9  1  0  0  0
  8  9  1  0  0  0
  9 10  2  0  0  0
 10 18  1  0  0  0
 18 19  1  0  0  0
 19 20  1  0  0  0
 15 17  1  0  0  0
  3 11  1  0  0  0
  5 12  1  0  0  0
  7 13  1  0  0  0
  8 14  1  0  0  0
 20 21  1  0  0  0
 20 22  1  0  0  0
M  END
> <minimizedAffinity>
-6.58580

$$$$
2VQT_15A_A_1865


 22 22  0  0  0  0  0  0  0  0999 V2000
   30.4345   48.4797   -4.2988 C   0  0  0  0  0  0  0  0  0  0  0  0
   30.2998   47.5693   -5.5551 C   0  0  0  0  0  0  0  0  0  0  0  0
   31.5210   47.3733   -6.1207 O   0  0  0  0  0  0  0  0  0  0  0  0
   29.5436   46.2210   -5.2893 C   0  0  0  0  0  0  0  0  0  0  0  0
   28.7192   45.8768   -6.2649 O   0  0  0  0  0  0  0  0  0  0  0  0
   28.7593   46.2183   -3.9319 C   0  0  0  0  0  0  0  0  0  0  0  0
   27.8111   45.2532   -3.7826 O   0  0  0  0  0  0  0  0  0  0  0  0
   29.1950   48.5760   -3.6191 N   0  0  0  0  0  0  0  0  0  0  0  0
   28.2461   47.6162   -3.6284 C   0  0  0  0  0  0  0  0  0  0  0  0
   26.9420   47.8361   -3.3713 N   0  0  0  0  0  0  0  0  0  0  0  0
   32.0944   46.9016   -5.4965 H   0  0  0  0  0  0  0  0  0  0  0  0
   28.0017   46.5267   -6.3263 H   0  0  0  0  0  0  0  0  0  0  0  0
   27.0930   45.4045   -4.4169 H   0  0  0  0  0  0  0  0  0  0  0  0
   29.0141   49.3967   -3.1064 H   0  0  0  0  0  0  0  0  0  0  0  0
   31.0644   50.1188   -5.8135 O   0  0  0  0  0  0  0  0  0  0  0  0
   30.9627   49.9199   -4.5173 C   0  0  0  0  0  0  0  0  0  0  0  0
   31.3941   51.0161   -5.9780 H   0  0  0  0  0  0  0  0  0  0  0  0
   26.2803   49.1003   -3.3614 C   0  0  0  0  0  0  0  0  0  0  0  0
   25.8565   49.6945   -1.9825 C   0  0  0  0  0  0  0  0  0  0  0  0
   26.7905   49.2451   -0.9331 N   0  0  0  0  0  0  0  0  0  0  0  0
   26.7739   48.2268   -0.8765 H   0  0  0  0  0  0  0  0  0  0  0  0
   26.5092   49.6400   -0.0357 H   0  0  0  0  0  0  0  0  0  0  0  0
 15 16  1  0  0  0
 16  1  1  0  0  0
  1  2  1  0  0  0
  1  8  1  0  0  0
  2  3  1  0  0  0
  2  4  1  0  0  0
  4  5  1  0  0  0
  4  6  1  0  0  0
  6  7  1  0  0  0
  6  9  1  0  0  0
  8  9  1  0  0  0
  9 10  2  0  0  0
 10 18  1  0  0  0
 18 19  1  0  0  0
 19 20  1  0  0  0
 15 17  1  0  0  0
  3 11  1  0  0  0
  5 12  1  0  0  0
  7 13  1  0  0  0
  8 14  1  0  0  0
 20 21  1  0  0  0
 20 22  1  0  0  0
M  END
> <minimizedAffinity>
-6.54361

$$$$
2VQT_15A_A_1865


 22 22  0  0  0  0  0  0  0  0999 V2000
   29.7375   46.9540   -4.7435 C   0  0  0  0  0  0  0  0  0  0  0  0
   31.2937   47.0132   -4.7416 C   0  0  0  0  0  0  0  0  0  0  0  0
   31.7632   46.9498   -6.0163 O   0  0  0  0  0  0  0  0  0  0  0  0
   31.8860   48.2303   -3.9489 C   0  0  0  0  0  0  0  0  0  0  0  0
   32.9571   47.9247   -3.2352 O   0  0  0  0  0  0  0  0  0  0  0  0
   30.8322   48.9240   -3.0184 C   0  0  0  0  0  0  0  0  0  0  0  0
   31.3258   49.7448   -2.0513 O   0  0  0  0  0  0  0  0  0  0  0  0
   29.2302   47.1619   -3.4369 N   0  0  0  0  0  0  0  0  0  0  0  0
   29.8524   47.8910   -2.4867 C   0  0  0  0  0  0  0  0  0  0  0  0
   29.6324   47.7595   -1.1641 N   0  0  0  0  0  0  0  0  0  0  0  0
   31.4568   47.7248   -6.5126 H   0  0  0  0  0  0  0  0  0  0  0  0
   32.7115   47.3004   -2.5346 H   0  0  0  0  0  0  0  0  0  0  0  0
   31.8307   49.2211   -1.4095 H   0  0  0  0  0  0  0  0  0  0  0  0
   28.3673   46.7473   -3.2072 H   0  0  0  0  0  0  0  0  0  0  0  0
   30.0207   44.7730   -5.4787 O   0  0  0  0  0  0  0  0  0  0  0  0
   29.0752   45.6707   -5.3050 C   0  0  0  0  0  0  0  0  0  0  0  0
   29.6313   43.9573   -5.8308 H   0  0  0  0  0  0  0  0  0  0  0  0
   28.9830   46.6664   -0.5163 C   0  0  0  0  0  0  0  0  0  0  0  0
   27.4381   46.7479   -0.3141 C   0  0  0  0  0  0  0  0  0  0  0  0
   26.7468   46.3050   -1.5395 N   0  0  0  0  0  0  0  0  0  0  0  0
   27.0135   46.9085   -2.3173 H   0  0  0  0  0  0  0  0  0  0  0  0
   25.7379   46.3576   -1.3986 H   0  0  0  0  0  0  0  0  0  0  0  0
 15 16  1  0  0  0
 16  1  1  0  0  0
  1  2  1  0  0  0
  1  8  1  0  0  0
  2  3  1  0  0  0
  2  4  1  0  0  0
  4  5  1  0  0  0
  4  6  1  0  0  0
  6  7  1  0  0  0
  6  9  1  0  0  0
  8  9  1  0  0  0
  9 10  2  0  0  0
 10 18  1  0  0  0
 18 19  1  0  0  0
 19 20  1  0  0  0
 15 17  1  0  0  0
  3 11  1  0  0  0
  5 12  1  0  0  0
  7 13  1  0  0  0
  8 14  1  0  0  0
 20 21  1  0  0  0
 20 22  1  0  0  0
M  END
> <minimizedAffinity>
-6.52129

$$$$
2VQT_15A_A_1865


 22 22  0  0  0  0  0  0  0  0999 V2000
   29.5465   46.3037   -4.2092 C   0  0  0  0  0  0  0  0  0  0  0  0
   28.3768   46.7590   -3.2873 C   0  0  0  0  0  0  0  0  0  0  0  0
   27.5942   45.6936   -2.9683 O   0  0  0  0  0  0  0  0  0  0  0  0
   28.8368   47.5605   -2.0198 C   0  0  0  0  0  0  0  0  0  0  0  0
   28.0532   48.5863   -1.7308 O   0  0  0  0  0  0  0  0  0  0  0  0
   30.3191   48.0609   -2.1187 C   0  0  0  0  0  0  0  0  0  0  0  0
   30.6868   49.0401   -1.2476 O   0  0  0  0  0  0  0  0  0  0  0  0
   30.4486   47.3731   -4.4331 N   0  0  0  0  0  0  0  0  0  0  0  0
   30.6607   48.3837   -3.5640 C   0  0  0  0  0  0  0  0  0  0  0  0
   31.1560   49.5885   -3.9076 N   0  0  0  0  0  0  0  0  0  0  0  0
   28.1139   45.0513   -2.4601 H   0  0  0  0  0  0  0  0  0  0  0  0
   28.1059   49.2439   -2.4419 H   0  0  0  0  0  0  0  0  0  0  0  0
   30.1978   49.8530   -1.4498 H   0  0  0  0  0  0  0  0  0  0  0  0
   30.9538   47.3795   -5.2781 H   0  0  0  0  0  0  0  0  0  0  0  0
   29.6914   44.5010   -5.6607 O   0  0  0  0  0  0  0  0  0  0  0  0
   29.1734   45.7079   -5.5900 C   0  0  0  0  0  0  0  0  0  0  0  0
   29.4717   44.1046   -6.5183 H   0  0  0  0  0  0  0  0  0  0  0  0
   31.2437   50.1254   -5.2267 C   0  0  0  0  0  0  0  0  0  0  0  0
   31.5253   51.6523   -5.3791 C   0  0  0  0  0  0  0  0  0  0  0  0
   30.3032   52.4213   -5.0774 N   0  0  0  0  0  0  0  0  0  0  0  0
   29.5635   52.1524   -5.7262 H   0  0  0  0  0  0  0  0  0  0  0  0
   30.4958   53.4181   -5.1756 H   0  0  0  0  0  0  0  0  0  0  0  0
 15 16  1  0  0  0
 16  1  1  0  0  0
  1  2  1  0  0  0
  1  8  1  0  0  0
  2  3  1  0  0  0
  2  4  1  0  0  0
  4  5  1  0  0  0
  4  6  1  0  0  0
  6  7  1  0  0  0
  6  9  1  0  0  0
  8  9  1  0  0  0
  9 10  2  0  0  0
 10 18  1  0  0  0
 18 19  1  0  0  0
 19 20  1  0  0  0
 15 17  1  0  0  0
  3 11  1  0  0  0
  5 12  1  0  0  0
  7 13  1  0  0  0
  8 14  1  0  0  0
 20 21  1  0  0  0
 20 22  1  0  0  0
M  END
> <minimizedAffinity>
-6.43968

$$$$
2VQT_15A_A_1865


 22 22  0  0  0  0  0  0  0  0999 V2000
   29.4668   45.4035   -6.0418 C   0  0  0  0  0  0  0  0  0  0  0  0
   30.9309   45.9291   -5.9686 C   0  0  0  0  0  0  0  0  0  0  0  0
   31.5603   45.7195   -7.1558 O   0  0  0  0  0  0  0  0  0  0  0  0
   31.0528   47.4161   -5.4846 C   0  0  0  0  0  0  0  0  0  0  0  0
   32.0649   47.6210   -4.6578 O   0  0  0  0  0  0  0  0  0  0  0  0
   29.7362   47.9531   -4.8245 C   0  0  0  0  0  0  0  0  0  0  0  0
   29.8521   49.0838   -4.0755 O   0  0  0  0  0  0  0  0  0  0  0  0
   28.7570   45.7426   -4.8633 N   0  0  0  0  0  0  0  0  0  0  0  0
   29.0230   46.8235   -4.0999 C   0  0  0  0  0  0  0  0  0  0  0  0
   28.6792   46.9391   -2.8024 N   0  0  0  0  0  0  0  0  0  0  0  0
   31.1168   46.2299   -7.8513 H   0  0  0  0  0  0  0  0  0  0  0  0
   31.9146   47.1301   -3.8349 H   0  0  0  0  0  0  0  0  0  0  0  0
   30.3954   48.8993   -3.2935 H   0  0  0  0  0  0  0  0  0  0  0  0
   28.0217   45.1511   -4.5828 H   0  0  0  0  0  0  0  0  0  0  0  0
   30.3764   43.2728   -5.9412 O   0  0  0  0  0  0  0  0  0  0  0  0
   29.2669   43.8871   -6.2897 C   0  0  0  0  0  0  0  0  0  0  0  0
   30.2774   42.3189   -6.0871 H   0  0  0  0  0  0  0  0  0  0  0  0
   28.2821   45.8804   -1.9320 C   0  0  0  0  0  0  0  0  0  0  0  0
   27.9749   46.2321   -0.4434 C   0  0  0  0  0  0  0  0  0  0  0  0
   29.2057   46.6885    0.2294 N   0  0  0  0  0  0  0  0  0  0  0  0
   29.9047   45.9463    0.1996 H   0  0  0  0  0  0  0  0  0  0  0  0
   28.9965   46.9198    1.2006 H   0  0  0  0  0  0  0  0  0  0  0  0
 15 16  1  0  0  0
 16  1  1  0  0  0
  1  2  1  0  0  0
  1  8  1  0  0  0
  2  3  1  0  0  0
  2  4  1  0  0  0
  4  5  1  0  0  0
  4  6  1  0  0  0
  6  7  1  0  0  0
  6  9  1  0  0  0
  8  9  1  0  0  0
  9 10  2  0  0  0
 10 18  1  0  0  0
 18 19  1  0  0  0
 19 20  1  0  0  0
 15 17  1  0  0  0
  3 11  1  0  0  0
  5 12  1  0  0  0
  7 13  1  0  0  0
  8 14  1  0  0  0
 20 21  1  0  0  0
 20 22  1  0  0  0
M  END
> <minimizedAffinity>
-6.15550

$$$$
