4RRA_A3T_A_201


 34 36  0  0  0  0  0  0  0  0999 V2000
   15.3290   -3.4904   -2.4089 C   0  0  0  0  0  0  0  0  0  0  0  0
   13.8498   -3.2315   -2.5440 C   0  0  0  0  0  0  0  0  0  0  0  0
   13.0392   -4.3835   -1.9887 O   0  0  0  0  0  0  0  0  0  0  0  0
   13.7439   -3.0729   -4.0351 C   0  0  0  0  0  0  0  0  0  0  0  0
   14.7625   -4.0347   -4.6139 C   0  0  0  0  0  0  0  0  0  0  0  0
   15.7062   -4.3054   -3.5198 O   0  0  0  0  0  0  0  0  0  0  0  0
   13.3102   -5.2080   -2.4219 H   0  0  0  0  0  0  0  0  0  0  0  0
   17.2108    0.4194    0.6011 N   0  0  0  0  0  0  0  0  0  0  0  0
   16.1136   -0.3913    0.8724 C   0  0  0  0  0  0  0  0  0  0  0  0
   15.7218   -1.3927   -0.0616 N   0  0  0  0  0  0  0  0  0  0  0  0
   16.4834   -1.4910   -1.1931 C   0  0  0  0  0  0  0  0  0  0  0  0
   17.5473   -0.6805   -1.4193 C   0  0  0  0  0  0  0  0  0  0  0  0
   17.9043    0.2895   -0.5208 C   0  0  0  0  0  0  0  0  0  0  0  0
   18.9546    1.0825   -0.7022 N   0  0  0  0  0  0  0  0  0  0  0  0
   18.0626   -1.0576   -2.6017 N   0  0  0  0  0  0  0  0  0  0  0  0
   17.3225   -2.0631   -3.0971 C   0  0  0  0  0  0  0  0  0  0  0  0
   16.3266   -2.3409   -2.2305 N   0  0  0  0  0  0  0  0  0  0  0  0
   19.1761    1.7675   -0.0306 H   0  0  0  0  0  0  0  0  0  0  0  0
   19.5115    0.9853   -1.5082 H   0  0  0  0  0  0  0  0  0  0  0  0
   11.4322   -2.4467   -4.4385 C   0  0  0  0  0  0  0  0  0  0  0  0
   11.6195   -1.1116   -4.1468 O   0  0  0  0  0  0  0  0  0  0  0  0
   12.3865   -3.4153   -4.4107 N   0  0  0  0  0  0  0  0  0  0  0  0
   12.1567   -4.3436   -4.6443 H   0  0  0  0  0  0  0  0  0  0  0  0
    9.9128   -2.8714   -6.3130 N   0  0  0  0  0  0  0  0  0  0  0  0
   10.0062   -2.8839   -4.8064 C   0  0  0  0  0  0  0  0  0  0  0  0
   10.1796   -1.9510   -6.6626 H   0  0  0  0  0  0  0  0  0  0  0  0
    8.9549   -3.0780   -6.5960 H   0  0  0  0  0  0  0  0  0  0  0  0
    9.6152   -4.2606   -4.1602 C   0  0  0  0  0  0  0  0  0  0  0  0
    8.4378   -4.8338   -4.8379 O   0  0  0  0  0  0  0  0  0  0  0  0
    9.3536   -4.1623   -2.6321 C   0  0  0  0  0  0  0  0  0  0  0  0
    7.6764   -4.2453   -4.7163 H   0  0  0  0  0  0  0  0  0  0  0  0
   15.4564   -3.2530   -5.7356 C   0  0  0  0  0  0  0  0  0  0  0  0
   14.6672   -2.0958   -5.9926 O   0  0  0  0  0  0  0  0  0  0  0  0
   13.7718   -2.3657   -6.2501 H   0  0  0  0  0  0  0  0  0  0  0  0
 20 21  2  0  0  0
 20 22  1  0  0  0
 20 25  1  0  0  0
 24 25  1  0  0  0
  8  9  2  0  0  0
  8 13  1  0  0  0
  9 10  1  0  0  0
 10 11  2  0  0  0
 11 12  1  0  0  0
 11 17  1  0  0  0
 12 13  2  0  0  0
 12 15  1  0  0  0
 13 14  1  0  0  0
 15 16  2  0  0  0
 16 17  1  0  0  0
 22  4  1  0  0  0
 17  1  1  0  0  0
 25 28  1  0  0  0
 28 29  1  0  0  0
 28 30  1  0  0  0
  1  2  1  0  0  0
  1  6  1  0  0  0
  2  3  1  0  0  0
  2  4  1  0  0  0
  4  5  1  0  0  0
  5  6  1  0  0  0
  5 32  1  0  0  0
 32 33  1  0  0  0
 24 26  1  0  0  0
 24 27  1  0  0  0
 14 18  1  0  0  0
 14 19  1  0  0  0
 22 23  1  0  0  0
 29 31  1  0  0  0
  3  7  1  0  0  0
 33 34  1  0  0  0
M  END
> <minimizedAffinity>
-10.27439

$$$$
4RRA_A3T_A_201


 34 36  0  0  0  0  0  0  0  0999 V2000
   15.3983   -3.4013   -2.2254 C   0  0  0  0  0  0  0  0  0  0  0  0
   14.0474   -3.1624   -2.8509 C   0  0  0  0  0  0  0  0  0  0  0  0
   12.9957   -4.0680   -2.2458 O   0  0  0  0  0  0  0  0  0  0  0  0
   14.3633   -3.4686   -4.2884 C   0  0  0  0  0  0  0  0  0  0  0  0
   15.3873   -4.5853   -4.2448 C   0  0  0  0  0  0  0  0  0  0  0  0
   15.9673   -4.5276   -2.8952 O   0  0  0  0  0  0  0  0  0  0  0  0
   13.2802   -4.9920   -2.3249 H   0  0  0  0  0  0  0  0  0  0  0  0
   17.3698    0.6332    0.5535 N   0  0  0  0  0  0  0  0  0  0  0  0
   16.2419   -0.1211    0.8592 C   0  0  0  0  0  0  0  0  0  0  0  0
   15.8293   -1.1682   -0.0138 N   0  0  0  0  0  0  0  0  0  0  0  0
   16.6030   -1.3658   -1.1239 C   0  0  0  0  0  0  0  0  0  0  0  0
   17.6971   -0.6076   -1.3851 C   0  0  0  0  0  0  0  0  0  0  0  0
   18.0743    0.4069   -0.5460 C   0  0  0  0  0  0  0  0  0  0  0  0
   19.1535    1.1511   -0.7615 N   0  0  0  0  0  0  0  0  0  0  0  0
   18.2157   -1.0785   -2.5318 N   0  0  0  0  0  0  0  0  0  0  0  0
   17.4488   -2.0893   -2.9726 C   0  0  0  0  0  0  0  0  0  0  0  0
   16.4319   -2.2763   -2.1061 N   0  0  0  0  0  0  0  0  0  0  0  0
   19.3887    1.8710   -0.1325 H   0  0  0  0  0  0  0  0  0  0  0  0
   19.7181    0.9826   -1.5503 H   0  0  0  0  0  0  0  0  0  0  0  0
   12.3561   -2.9518   -5.5545 C   0  0  0  0  0  0  0  0  0  0  0  0
   12.6343   -1.6058   -5.6716 O   0  0  0  0  0  0  0  0  0  0  0  0
   13.1272   -3.8783   -4.9246 N   0  0  0  0  0  0  0  0  0  0  0  0
   12.8473   -4.8219   -4.9010 H   0  0  0  0  0  0  0  0  0  0  0  0
   10.3483   -4.2906   -5.1314 N   0  0  0  0  0  0  0  0  0  0  0  0
   11.0398   -3.4455   -6.1738 C   0  0  0  0  0  0  0  0  0  0  0  0
   10.9776   -5.0313   -4.8221 H   0  0  0  0  0  0  0  0  0  0  0  0
    9.5071   -4.7048   -5.5329 H   0  0  0  0  0  0  0  0  0  0  0  0
   10.1559   -2.2689   -6.7217 C   0  0  0  0  0  0  0  0  0  0  0  0
    9.4536   -1.5919   -5.6161 O   0  0  0  0  0  0  0  0  0  0  0  0
    9.1348   -2.7267   -7.7992 C   0  0  0  0  0  0  0  0  0  0  0  0
    8.8476   -2.2163   -5.1875 H   0  0  0  0  0  0  0  0  0  0  0  0
   16.4383   -4.2036   -5.2937 C   0  0  0  0  0  0  0  0  0  0  0  0
   15.8464   -3.2295   -6.1475 O   0  0  0  0  0  0  0  0  0  0  0  0
   15.0519   -3.6020   -6.5609 H   0  0  0  0  0  0  0  0  0  0  0  0
 20 21  2  0  0  0
 20 22  1  0  0  0
 20 25  1  0  0  0
 24 25  1  0  0  0
  8  9  2  0  0  0
  8 13  1  0  0  0
  9 10  1  0  0  0
 10 11  2  0  0  0
 11 12  1  0  0  0
 11 17  1  0  0  0
 12 13  2  0  0  0
 12 15  1  0  0  0
 13 14  1  0  0  0
 15 16  2  0  0  0
 16 17  1  0  0  0
 22  4  1  0  0  0
 17  1  1  0  0  0
 25 28  1  0  0  0
 28 29  1  0  0  0
 28 30  1  0  0  0
  1  2  1  0  0  0
  1  6  1  0  0  0
  2  3  1  0  0  0
  2  4  1  0  0  0
  4  5  1  0  0  0
  5  6  1  0  0  0
  5 32  1  0  0  0
 32 33  1  0  0  0
 24 26  1  0  0  0
 24 27  1  0  0  0
 14 18  1  0  0  0
 14 19  1  0  0  0
 22 23  1  0  0  0
 29 31  1  0  0  0
  3  7  1  0  0  0
 33 34  1  0  0  0
M  END
> <minimizedAffinity>
-9.72699

$$$$
4RRA_A3T_A_201


 34 36  0  0  0  0  0  0  0  0999 V2000
   15.5067   -4.0053   -2.9396 C   0  0  0  0  0  0  0  0  0  0  0  0
   14.0232   -4.2142   -2.7696 C   0  0  0  0  0  0  0  0  0  0  0  0
   13.6694   -5.6859   -2.8076 O   0  0  0  0  0  0  0  0  0  0  0  0
   13.5092   -3.4319   -3.9459 C   0  0  0  0  0  0  0  0  0  0  0  0
   14.5420   -3.6254   -5.0383 C   0  0  0  0  0  0  0  0  0  0  0  0
   15.7683   -4.0430   -4.3435 O   0  0  0  0  0  0  0  0  0  0  0  0
   14.0051   -6.0781   -3.6288 H   0  0  0  0  0  0  0  0  0  0  0  0
   19.4755   -0.5244   -3.0747 N   0  0  0  0  0  0  0  0  0  0  0  0
   19.2712   -1.5940   -3.9400 C   0  0  0  0  0  0  0  0  0  0  0  0
   18.1546   -2.4579   -3.7507 N   0  0  0  0  0  0  0  0  0  0  0  0
   17.3335   -2.1579   -2.6990 C   0  0  0  0  0  0  0  0  0  0  0  0
   17.5681   -1.1037   -1.8783 C   0  0  0  0  0  0  0  0  0  0  0  0
   18.6543   -0.2898   -2.0612 C   0  0  0  0  0  0  0  0  0  0  0  0
   18.8980    0.7639   -1.2897 N   0  0  0  0  0  0  0  0  0  0  0  0
   16.5715   -1.0999   -0.9770 N   0  0  0  0  0  0  0  0  0  0  0  0
   15.7552   -2.1366   -1.2277 C   0  0  0  0  0  0  0  0  0  0  0  0
   16.2226   -2.8121   -2.2978 N   0  0  0  0  0  0  0  0  0  0  0  0
   19.6912    1.3230   -1.4561 H   0  0  0  0  0  0  0  0  0  0  0  0
   18.2855    0.9858   -0.5516 H   0  0  0  0  0  0  0  0  0  0  0  0
   11.1454   -3.1609   -4.4339 C   0  0  0  0  0  0  0  0  0  0  0  0
   11.1475   -1.7915   -4.2686 O   0  0  0  0  0  0  0  0  0  0  0  0
   12.2184   -3.9863   -4.3028 N   0  0  0  0  0  0  0  0  0  0  0  0
   12.1190   -4.9547   -4.4495 H   0  0  0  0  0  0  0  0  0  0  0  0
   10.0205   -4.6757   -5.9968 N   0  0  0  0  0  0  0  0  0  0  0  0
    9.7991   -3.8174   -4.7749 C   0  0  0  0  0  0  0  0  0  0  0  0
   10.4184   -4.1069   -6.7442 H   0  0  0  0  0  0  0  0  0  0  0  0
    9.1296   -5.0660   -6.3041 H   0  0  0  0  0  0  0  0  0  0  0  0
    9.1862   -4.5971   -3.5574 C   0  0  0  0  0  0  0  0  0  0  0  0
    7.7181   -4.6680   -3.6752 O   0  0  0  0  0  0  0  0  0  0  0  0
    9.5806   -3.9870   -2.1843 C   0  0  0  0  0  0  0  0  0  0  0  0
    7.3476   -3.7721   -3.6443 H   0  0  0  0  0  0  0  0  0  0  0  0
   14.7285   -2.2369   -5.6612 C   0  0  0  0  0  0  0  0  0  0  0  0
   13.5001   -1.8906   -6.2930 O   0  0  0  0  0  0  0  0  0  0  0  0
   13.2841   -2.5549   -6.9660 H   0  0  0  0  0  0  0  0  0  0  0  0
 20 21  2  0  0  0
 20 22  1  0  0  0
 20 25  1  0  0  0
 24 25  1  0  0  0
  8  9  2  0  0  0
  8 13  1  0  0  0
  9 10  1  0  0  0
 10 11  2  0  0  0
 11 12  1  0  0  0
 11 17  1  0  0  0
 12 13  2  0  0  0
 12 15  1  0  0  0
 13 14  1  0  0  0
 15 16  2  0  0  0
 16 17  1  0  0  0
 22  4  1  0  0  0
 17  1  1  0  0  0
 25 28  1  0  0  0
 28 29  1  0  0  0
 28 30  1  0  0  0
  1  2  1  0  0  0
  1  6  1  0  0  0
  2  3  1  0  0  0
  2  4  1  0  0  0
  4  5  1  0  0  0
  5  6  1  0  0  0
  5 32  1  0  0  0
 32 33  1  0  0  0
 24 26  1  0  0  0
 24 27  1  0  0  0
 14 18  1  0  0  0
 14 19  1  0  0  0
 22 23  1  0  0  0
 29 31  1  0  0  0
  3  7  1  0  0  0
 33 34  1  0  0  0
M  END
> <minimizedAffinity>
-9.44262

$$$$
4RRA_A3T_A_201


 34 36  0  0  0  0  0  0  0  0999 V2000
   14.9782   -3.6943   -2.0666 C   0  0  0  0  0  0  0  0  0  0  0  0
   13.5512   -3.4482   -2.4870 C   0  0  0  0  0  0  0  0  0  0  0  0
   12.6505   -4.5884   -2.0614 O   0  0  0  0  0  0  0  0  0  0  0  0
   13.7296   -3.3335   -3.9753 C   0  0  0  0  0  0  0  0  0  0  0  0
   14.8397   -4.3056   -4.3220 C   0  0  0  0  0  0  0  0  0  0  0  0
   15.5592   -4.5389   -3.0615 O   0  0  0  0  0  0  0  0  0  0  0  0
   12.9989   -5.4235   -2.4109 H   0  0  0  0  0  0  0  0  0  0  0  0
   19.4035   -1.0318   -3.1688 N   0  0  0  0  0  0  0  0  0  0  0  0
   18.9601   -2.2039   -3.7724 C   0  0  0  0  0  0  0  0  0  0  0  0
   17.7465   -2.8110   -3.3394 N   0  0  0  0  0  0  0  0  0  0  0  0
   17.0801   -2.1712   -2.3311 C   0  0  0  0  0  0  0  0  0  0  0  0
   17.5469   -1.0281   -1.7695 C   0  0  0  0  0  0  0  0  0  0  0  0
   18.7235   -0.4628   -2.1838 C   0  0  0  0  0  0  0  0  0  0  0  0
   19.1947    0.6684   -1.6705 N   0  0  0  0  0  0  0  0  0  0  0  0
   16.6488   -0.6747   -0.8345 N   0  0  0  0  0  0  0  0  0  0  0  0
   15.6642   -1.5880   -0.8108 C   0  0  0  0  0  0  0  0  0  0  0  0
   15.9235   -2.5342   -1.7366 N   0  0  0  0  0  0  0  0  0  0  0  0
   20.0454    1.0406   -1.9976 H   0  0  0  0  0  0  0  0  0  0  0  0
   18.6931    1.1345   -0.9632 H   0  0  0  0  0  0  0  0  0  0  0  0
   12.0551   -3.0418   -5.7101 C   0  0  0  0  0  0  0  0  0  0  0  0
   12.7363   -2.0357   -6.3630 O   0  0  0  0  0  0  0  0  0  0  0  0
   12.4681   -3.6947   -4.5907 N   0  0  0  0  0  0  0  0  0  0  0  0
   11.9134   -4.4085   -4.2008 H   0  0  0  0  0  0  0  0  0  0  0  0
   10.1787   -4.5967   -5.4568 N   0  0  0  0  0  0  0  0  0  0  0  0
   10.6908   -3.4461   -6.2890 C   0  0  0  0  0  0  0  0  0  0  0  0
   10.8740   -5.3430   -5.4441 H   0  0  0  0  0  0  0  0  0  0  0  0
    9.3102   -4.9480   -5.8601 H   0  0  0  0  0  0  0  0  0  0  0  0
    9.6936   -2.2362   -6.3762 C   0  0  0  0  0  0  0  0  0  0  0  0
   10.0463   -1.3560   -7.5054 O   0  0  0  0  0  0  0  0  0  0  0  0
    9.6220   -1.4117   -5.0616 C   0  0  0  0  0  0  0  0  0  0  0  0
   10.9273   -0.9779   -7.3576 H   0  0  0  0  0  0  0  0  0  0  0  0
   15.7333   -3.5527   -5.3146 C   0  0  0  0  0  0  0  0  0  0  0  0
   15.3494   -2.1820   -5.2705 O   0  0  0  0  0  0  0  0  0  0  0  0
   14.4119   -2.1010   -5.5056 H   0  0  0  0  0  0  0  0  0  0  0  0
 20 21  2  0  0  0
 20 22  1  0  0  0
 20 25  1  0  0  0
 24 25  1  0  0  0
  8  9  2  0  0  0
  8 13  1  0  0  0
  9 10  1  0  0  0
 10 11  2  0  0  0
 11 12  1  0  0  0
 11 17  1  0  0  0
 12 13  2  0  0  0
 12 15  1  0  0  0
 13 14  1  0  0  0
 15 16  2  0  0  0
 16 17  1  0  0  0
 22  4  1  0  0  0
 17  1  1  0  0  0
 25 28  1  0  0  0
 28 29  1  0  0  0
 28 30  1  0  0  0
  1  2  1  0  0  0
  1  6  1  0  0  0
  2  3  1  0  0  0
  2  4  1  0  0  0
  4  5  1  0  0  0
  5  6  1  0  0  0
  5 32  1  0  0  0
 32 33  1  0  0  0
 24 26  1  0  0  0
 24 27  1  0  0  0
 14 18  1  0  0  0
 14 19  1  0  0  0
 22 23  1  0  0  0
 29 31  1  0  0  0
  3  7  1  0  0  0
 33 34  1  0  0  0
M  END
> <minimizedAffinity>
-9.25460

$$$$
4RRA_A3T_A_201


 34 36  0  0  0  0  0  0  0  0999 V2000
   14.6458   -3.4422   -5.6587 C   0  0  0  0  0  0  0  0  0  0  0  0
   15.5040   -2.3493   -5.0737 C   0  0  0  0  0  0  0  0  0  0  0  0
   16.9390   -2.4703   -5.5413 O   0  0  0  0  0  0  0  0  0  0  0  0
   15.3145   -2.6202   -3.6072 C   0  0  0  0  0  0  0  0  0  0  0  0
   15.1985   -4.1269   -3.4895 C   0  0  0  0  0  0  0  0  0  0  0  0
   14.8288   -4.5939   -4.8335 O   0  0  0  0  0  0  0  0  0  0  0  0
   17.2745   -3.3555   -5.3297 H   0  0  0  0  0  0  0  0  0  0  0  0
   10.9029   -1.1757   -8.6153 N   0  0  0  0  0  0  0  0  0  0  0  0
   12.2773   -0.9870   -8.7163 C   0  0  0  0  0  0  0  0  0  0  0  0
   13.1550   -1.6623   -7.8205 N   0  0  0  0  0  0  0  0  0  0  0  0
   12.5615   -2.4799   -6.8988 C   0  0  0  0  0  0  0  0  0  0  0  0
   11.2157   -2.6371   -6.8344 C   0  0  0  0  0  0  0  0  0  0  0  0
   10.3814   -1.9697   -7.6912 C   0  0  0  0  0  0  0  0  0  0  0  0
    9.0616   -2.1209   -7.6690 N   0  0  0  0  0  0  0  0  0  0  0  0
   10.9863   -3.5071   -5.8363 N   0  0  0  0  0  0  0  0  0  0  0  0
   12.1612   -3.8614   -5.2902 C   0  0  0  0  0  0  0  0  0  0  0  0
   13.1556   -3.2216   -5.9397 N   0  0  0  0  0  0  0  0  0  0  0  0
    8.4982   -1.6214   -8.3032 H   0  0  0  0  0  0  0  0  0  0  0  0
    8.6471   -2.7325   -7.0183 H   0  0  0  0  0  0  0  0  0  0  0  0
   16.3245   -1.4480   -1.7351 C   0  0  0  0  0  0  0  0  0  0  0  0
   15.1315   -1.2216   -1.0808 O   0  0  0  0  0  0  0  0  0  0  0  0
   16.4791   -2.1012   -2.9180 N   0  0  0  0  0  0  0  0  0  0  0  0
   17.3769   -2.2208   -3.3038 H   0  0  0  0  0  0  0  0  0  0  0  0
   18.4561   -0.3256   -2.1814 N   0  0  0  0  0  0  0  0  0  0  0  0
   17.5948   -0.8887   -1.0768 C   0  0  0  0  0  0  0  0  0  0  0  0
   18.6224   -1.0462   -2.8838 H   0  0  0  0  0  0  0  0  0  0  0  0
   19.3475   -0.0167   -1.7935 H   0  0  0  0  0  0  0  0  0  0  0  0
   17.2756    0.1423    0.0638 C   0  0  0  0  0  0  0  0  0  0  0  0
   18.3896    1.0943    0.2266 O   0  0  0  0  0  0  0  0  0  0  0  0
   16.9529   -0.5362    1.4234 C   0  0  0  0  0  0  0  0  0  0  0  0
   19.1867    0.6152    0.5024 H   0  0  0  0  0  0  0  0  0  0  0  0
   14.0452   -4.3624   -2.5071 C   0  0  0  0  0  0  0  0  0  0  0  0
   13.6484   -5.7234   -2.6425 O   0  0  0  0  0  0  0  0  0  0  0  0
   13.3742   -5.8907   -3.5577 H   0  0  0  0  0  0  0  0  0  0  0  0
 20 21  2  0  0  0
 20 22  1  0  0  0
 20 25  1  0  0  0
 24 25  1  0  0  0
  8  9  2  0  0  0
  8 13  1  0  0  0
  9 10  1  0  0  0
 10 11  2  0  0  0
 11 12  1  0  0  0
 11 17  1  0  0  0
 12 13  2  0  0  0
 12 15  1  0  0  0
 13 14  1  0  0  0
 15 16  2  0  0  0
 16 17  1  0  0  0
 22  4  1  0  0  0
 17  1  1  0  0  0
 25 28  1  0  0  0
 28 29  1  0  0  0
 28 30  1  0  0  0
  1  2  1  0  0  0
  1  6  1  0  0  0
  2  3  1  0  0  0
  2  4  1  0  0  0
  4  5  1  0  0  0
  5  6  1  0  0  0
  5 32  1  0  0  0
 32 33  1  0  0  0
 24 26  1  0  0  0
 24 27  1  0  0  0
 14 18  1  0  0  0
 14 19  1  0  0  0
 22 23  1  0  0  0
 29 31  1  0  0  0
  3  7  1  0  0  0
 33 34  1  0  0  0
M  END
> <minimizedAffinity>
-8.54475

$$$$
4RRA_A3T_A_201


 34 36  0  0  0  0  0  0  0  0999 V2000
   16.1029   -3.7136   -4.5675 C   0  0  0  0  0  0  0  0  0  0  0  0
   14.7361   -3.8114   -3.9384 C   0  0  0  0  0  0  0  0  0  0  0  0
   14.2412   -5.2423   -3.9237 O   0  0  0  0  0  0  0  0  0  0  0  0
   13.9586   -2.9055   -4.8520 C   0  0  0  0  0  0  0  0  0  0  0  0
   14.5677   -3.1030   -6.2259 C   0  0  0  0  0  0  0  0  0  0  0  0
   15.9018   -3.6699   -5.9811 O   0  0  0  0  0  0  0  0  0  0  0  0
   14.2584   -5.5997   -4.8253 H   0  0  0  0  0  0  0  0  0  0  0  0
   19.9373   -0.3364   -5.9013 N   0  0  0  0  0  0  0  0  0  0  0  0
   19.3260   -1.2757   -6.7251 C   0  0  0  0  0  0  0  0  0  0  0  0
   18.3161   -2.1317   -6.1994 N   0  0  0  0  0  0  0  0  0  0  0  0
   18.0067   -1.9567   -4.8789 C   0  0  0  0  0  0  0  0  0  0  0  0
   18.6268   -1.0274   -4.1096 C   0  0  0  0  0  0  0  0  0  0  0  0
   19.6077   -0.2211   -4.6228 C   0  0  0  0  0  0  0  0  0  0  0  0
   20.2165    0.7141   -3.9019 N   0  0  0  0  0  0  0  0  0  0  0  0
   18.0750   -1.1217   -2.8880 N   0  0  0  0  0  0  0  0  0  0  0  0
   17.1514   -2.0969   -2.9027 C   0  0  0  0  0  0  0  0  0  0  0  0
   17.1021   -2.6334   -4.1395 N   0  0  0  0  0  0  0  0  0  0  0  0
   20.9170    1.2723   -4.3104 H   0  0  0  0  0  0  0  0  0  0  0  0
   19.9671    0.8490   -2.9591 H   0  0  0  0  0  0  0  0  0  0  0  0
   11.6012   -2.4042   -4.5516 C   0  0  0  0  0  0  0  0  0  0  0  0
   11.7933   -1.0535   -4.3479 O   0  0  0  0  0  0  0  0  0  0  0  0
   12.5721   -3.3242   -4.7981 N   0  0  0  0  0  0  0  0  0  0  0  0
   12.3344   -4.2691   -4.9392 H   0  0  0  0  0  0  0  0  0  0  0  0
    9.9311   -3.8035   -5.6720 N   0  0  0  0  0  0  0  0  0  0  0  0
   10.1569   -2.9207   -4.4685 C   0  0  0  0  0  0  0  0  0  0  0  0
   10.1489   -3.2825   -6.5215 H   0  0  0  0  0  0  0  0  0  0  0  0
    8.9561   -4.1019   -5.6967 H   0  0  0  0  0  0  0  0  0  0  0  0
    9.8499   -3.6270   -3.1000 C   0  0  0  0  0  0  0  0  0  0  0  0
   11.0520   -4.3125   -2.5911 O   0  0  0  0  0  0  0  0  0  0  0  0
    8.6636   -4.6264   -3.1845 C   0  0  0  0  0  0  0  0  0  0  0  0
   11.3121   -5.0120   -3.2108 H   0  0  0  0  0  0  0  0  0  0  0  0
   14.6874   -1.6927   -6.8153 C   0  0  0  0  0  0  0  0  0  0  0  0
   13.3677   -1.1687   -6.9242 O   0  0  0  0  0  0  0  0  0  0  0  0
   12.8362   -1.7469   -7.4935 H   0  0  0  0  0  0  0  0  0  0  0  0
 20 21  2  0  0  0
 20 22  1  0  0  0
 20 25  1  0  0  0
 24 25  1  0  0  0
  8  9  2  0  0  0
  8 13  1  0  0  0
  9 10  1  0  0  0
 10 11  2  0  0  0
 11 12  1  0  0  0
 11 17  1  0  0  0
 12 13  2  0  0  0
 12 15  1  0  0  0
 13 14  1  0  0  0
 15 16  2  0  0  0
 16 17  1  0  0  0
 22  4  1  0  0  0
 17  1  1  0  0  0
 25 28  1  0  0  0
 28 29  1  0  0  0
 28 30  1  0  0  0
  1  2  1  0  0  0
  1  6  1  0  0  0
  2  3  1  0  0  0
  2  4  1  0  0  0
  4  5  1  0  0  0
  5  6  1  0  0  0
  5 32  1  0  0  0
 32 33  1  0  0  0
 24 26  1  0  0  0
 24 27  1  0  0  0
 14 18  1  0  0  0
 14 19  1  0  0  0
 22 23  1  0  0  0
 29 31  1  0  0  0
  3  7  1  0  0  0
 33 34  1  0  0  0
M  END
> <minimizedAffinity>
-8.21442

$$$$
4RRA_A3T_A_201


 34 36  0  0  0  0  0  0  0  0999 V2000
   14.8912   -4.1942   -4.1227 C   0  0  0  0  0  0  0  0  0  0  0  0
   15.6394   -3.0898   -4.8255 C   0  0  0  0  0  0  0  0  0  0  0  0
   16.7537   -3.6453   -5.6871 O   0  0  0  0  0  0  0  0  0  0  0  0
   16.1196   -2.2994   -3.6404 C   0  0  0  0  0  0  0  0  0  0  0  0
   16.4056   -3.3264   -2.5629 C   0  0  0  0  0  0  0  0  0  0  0  0
   15.6453   -4.5220   -2.9546 O   0  0  0  0  0  0  0  0  0  0  0  0
   17.3371   -4.1982   -5.1442 H   0  0  0  0  0  0  0  0  0  0  0  0
   10.0224   -2.7952   -5.6145 N   0  0  0  0  0  0  0  0  0  0  0  0
   11.1970   -2.6426   -6.3437 C   0  0  0  0  0  0  0  0  0  0  0  0
   12.4399   -3.0551   -5.7834 N   0  0  0  0  0  0  0  0  0  0  0  0
   12.3842   -3.5953   -4.5283 C   0  0  0  0  0  0  0  0  0  0  0  0
   11.2165   -3.7273   -3.8508 C   0  0  0  0  0  0  0  0  0  0  0  0
   10.0298   -3.3121   -4.3941 C   0  0  0  0  0  0  0  0  0  0  0  0
    8.8672   -3.4497   -3.7661 N   0  0  0  0  0  0  0  0  0  0  0  0
   11.5267   -4.2981   -2.6745 N   0  0  0  0  0  0  0  0  0  0  0  0
   12.8544   -4.4953   -2.6243 C   0  0  0  0  0  0  0  0  0  0  0  0
   13.4056   -4.0543   -3.7739 N   0  0  0  0  0  0  0  0  0  0  0  0
    8.0371   -3.1372   -4.1931 H   0  0  0  0  0  0  0  0  0  0  0  0
    8.8359   -3.8641   -2.8736 H   0  0  0  0  0  0  0  0  0  0  0  0
   17.7000   -0.4754   -3.3681 C   0  0  0  0  0  0  0  0  0  0  0  0
   17.0651    0.0672   -2.2702 O   0  0  0  0  0  0  0  0  0  0  0  0
   17.3117   -1.5851   -4.0518 N   0  0  0  0  0  0  0  0  0  0  0  0
   17.8375   -1.9014   -4.8218 H   0  0  0  0  0  0  0  0  0  0  0  0
   20.1271   -0.2756   -3.1001 N   0  0  0  0  0  0  0  0  0  0  0  0
   18.9495    0.2569   -3.8802 C   0  0  0  0  0  0  0  0  0  0  0  0
   19.9499   -0.1682   -2.1014 H   0  0  0  0  0  0  0  0  0  0  0  0
   20.9667    0.2448   -3.3544 H   0  0  0  0  0  0  0  0  0  0  0  0
   19.1177    0.1400   -5.4371 C   0  0  0  0  0  0  0  0  0  0  0  0
   19.4787   -1.2384   -5.8159 O   0  0  0  0  0  0  0  0  0  0  0  0
   20.1582    1.1395   -6.0127 C   0  0  0  0  0  0  0  0  0  0  0  0
   20.3378   -1.4660   -5.4274 H   0  0  0  0  0  0  0  0  0  0  0  0
   15.8284   -2.7253   -1.2760 C   0  0  0  0  0  0  0  0  0  0  0  0
   14.8974   -1.7192   -1.6622 O   0  0  0  0  0  0  0  0  0  0  0  0
   15.3501   -1.0472   -2.1953 H   0  0  0  0  0  0  0  0  0  0  0  0
 20 21  2  0  0  0
 20 22  1  0  0  0
 20 25  1  0  0  0
 24 25  1  0  0  0
  8  9  2  0  0  0
  8 13  1  0  0  0
  9 10  1  0  0  0
 10 11  2  0  0  0
 11 12  1  0  0  0
 11 17  1  0  0  0
 12 13  2  0  0  0
 12 15  1  0  0  0
 13 14  1  0  0  0
 15 16  2  0  0  0
 16 17  1  0  0  0
 22  4  1  0  0  0
 17  1  1  0  0  0
 25 28  1  0  0  0
 28 29  1  0  0  0
 28 30  1  0  0  0
  1  2  1  0  0  0
  1  6  1  0  0  0
  2  3  1  0  0  0
  2  4  1  0  0  0
  4  5  1  0  0  0
  5  6  1  0  0  0
  5 32  1  0  0  0
 32 33  1  0  0  0
 24 26  1  0  0  0
 24 27  1  0  0  0
 14 18  1  0  0  0
 14 19  1  0  0  0
 22 23  1  0  0  0
 29 31  1  0  0  0
  3  7  1  0  0  0
 33 34  1  0  0  0
M  END
> <minimizedAffinity>
-7.99263

$$$$
4RRA_A3T_A_201


 34 36  0  0  0  0  0  0  0  0999 V2000
   15.6487   -3.2035   -4.6584 C   0  0  0  0  0  0  0  0  0  0  0  0
   14.1410   -3.1959   -4.6752 C   0  0  0  0  0  0  0  0  0  0  0  0
   13.5912   -4.5414   -5.0993 O   0  0  0  0  0  0  0  0  0  0  0  0
   13.8927   -2.0943   -5.6675 C   0  0  0  0  0  0  0  0  0  0  0  0
   15.0160   -2.2053   -6.6791 C   0  0  0  0  0  0  0  0  0  0  0  0
   16.0752   -2.9665   -6.0011 O   0  0  0  0  0  0  0  0  0  0  0  0
   13.9681   -4.7885   -5.9582 H   0  0  0  0  0  0  0  0  0  0  0  0
   19.7377    0.0292   -3.8118 N   0  0  0  0  0  0  0  0  0  0  0  0
   19.4514   -0.6693   -4.9801 C   0  0  0  0  0  0  0  0  0  0  0  0
   18.3127   -1.5230   -5.0366 N   0  0  0  0  0  0  0  0  0  0  0  0
   17.5546   -1.5908   -3.9004 C   0  0  0  0  0  0  0  0  0  0  0  0
   17.8684   -0.8918   -2.7811 C   0  0  0  0  0  0  0  0  0  0  0  0
   18.9752   -0.0866   -2.7340 C   0  0  0  0  0  0  0  0  0  0  0  0
   19.2957    0.6288   -1.6614 N   0  0  0  0  0  0  0  0  0  0  0  0
   16.9166   -1.1815   -1.8778 N   0  0  0  0  0  0  0  0  0  0  0  0
   16.0500   -2.0506   -2.4236 C   0  0  0  0  0  0  0  0  0  0  0  0
   16.4397   -2.3215   -3.6864 N   0  0  0  0  0  0  0  0  0  0  0  0
   20.1009    1.1951   -1.6700 H   0  0  0  0  0  0  0  0  0  0  0  0
   18.7279    0.5926   -0.8579 H   0  0  0  0  0  0  0  0  0  0  0  0
   11.4741   -1.8754   -5.6331 C   0  0  0  0  0  0  0  0  0  0  0  0
   11.4367   -1.1705   -4.4481 O   0  0  0  0  0  0  0  0  0  0  0  0
   12.5915   -2.3317   -6.2600 N   0  0  0  0  0  0  0  0  0  0  0  0
   12.5169   -2.8205   -7.1114 H   0  0  0  0  0  0  0  0  0  0  0  0
   10.1080   -1.4940   -7.6309 N   0  0  0  0  0  0  0  0  0  0  0  0
   10.1247   -2.1951   -6.2941 C   0  0  0  0  0  0  0  0  0  0  0  0
   10.2911   -0.4997   -7.4957 H   0  0  0  0  0  0  0  0  0  0  0  0
    9.1940   -1.6152   -8.0670 H   0  0  0  0  0  0  0  0  0  0  0  0
    9.8525   -3.7388   -6.3865 C   0  0  0  0  0  0  0  0  0  0  0  0
    8.5868   -3.9989   -7.0966 O   0  0  0  0  0  0  0  0  0  0  0  0
    9.8370   -4.4373   -4.9990 C   0  0  0  0  0  0  0  0  0  0  0  0
    7.8498   -3.6180   -6.5939 H   0  0  0  0  0  0  0  0  0  0  0  0
   15.4721   -0.7629   -6.9283 C   0  0  0  0  0  0  0  0  0  0  0  0
   16.8113   -0.8221   -7.4091 O   0  0  0  0  0  0  0  0  0  0  0  0
   17.3718   -1.2624   -6.7512 H   0  0  0  0  0  0  0  0  0  0  0  0
 20 21  2  0  0  0
 20 22  1  0  0  0
 20 25  1  0  0  0
 24 25  1  0  0  0
  8  9  2  0  0  0
  8 13  1  0  0  0
  9 10  1  0  0  0
 10 11  2  0  0  0
 11 12  1  0  0  0
 11 17  1  0  0  0
 12 13  2  0  0  0
 12 15  1  0  0  0
 13 14  1  0  0  0
 15 16  2  0  0  0
 16 17  1  0  0  0
 22  4  1  0  0  0
 17  1  1  0  0  0
 25 28  1  0  0  0
 28 29  1  0  0  0
 28 30  1  0  0  0
  1  2  1  0  0  0
  1  6  1  0  0  0
  2  3  1  0  0  0
  2  4  1  0  0  0
  4  5  1  0  0  0
  5  6  1  0  0  0
  5 32  1  0  0  0
 32 33  1  0  0  0
 24 26  1  0  0  0
 24 27  1  0  0  0
 14 18  1  0  0  0
 14 19  1  0  0  0
 22 23  1  0  0  0
 29 31  1  0  0  0
  3  7  1  0  0  0
 33 34  1  0  0  0
M  END
> <minimizedAffinity>
-7.90042

$$$$
4RRA_A3T_A_201


 34 36  0  0  0  0  0  0  0  0999 V2000
   15.1099   -3.3012   -5.8364 C   0  0  0  0  0  0  0  0  0  0  0  0
   16.1176   -2.4239   -5.1375 C   0  0  0  0  0  0  0  0  0  0  0  0
   17.5028   -3.0330   -5.1886 O   0  0  0  0  0  0  0  0  0  0  0  0
   15.5198   -2.3804   -3.7589 C   0  0  0  0  0  0  0  0  0  0  0  0
   14.8985   -3.7468   -3.5481 C   0  0  0  0  0  0  0  0  0  0  0  0
   14.7159   -4.3024   -4.8967 O   0  0  0  0  0  0  0  0  0  0  0  0
   17.4756   -3.9295   -4.8192 H   0  0  0  0  0  0  0  0  0  0  0  0
    9.8574   -3.1863   -6.3704 N   0  0  0  0  0  0  0  0  0  0  0  0
   10.5989   -4.0566   -5.5783 C   0  0  0  0  0  0  0  0  0  0  0  0
   12.0204   -3.9682   -5.5641 N   0  0  0  0  0  0  0  0  0  0  0  0
   12.5706   -2.9963   -6.3532 C   0  0  0  0  0  0  0  0  0  0  0  0
   11.8110   -2.1664   -7.1110 C   0  0  0  0  0  0  0  0  0  0  0  0
   10.4456   -2.2720   -7.1284 C   0  0  0  0  0  0  0  0  0  0  0  0
    9.6732   -1.4592   -7.8409 N   0  0  0  0  0  0  0  0  0  0  0  0
   12.6665   -1.3413   -7.7380 N   0  0  0  0  0  0  0  0  0  0  0  0
   13.9211   -1.6683   -7.3872 C   0  0  0  0  0  0  0  0  0  0  0  0
   13.8779   -2.7064   -6.5267 N   0  0  0  0  0  0  0  0  0  0  0  0
    8.6951   -1.5701   -7.8249 H   0  0  0  0  0  0  0  0  0  0  0  0
   10.0789   -0.7460   -8.3850 H   0  0  0  0  0  0  0  0  0  0  0  0
   16.3213   -1.5643   -1.6163 C   0  0  0  0  0  0  0  0  0  0  0  0
   15.0707   -1.2220   -1.1457 O   0  0  0  0  0  0  0  0  0  0  0  0
   16.5989   -2.1157   -2.8282 N   0  0  0  0  0  0  0  0  0  0  0  0
   17.5275   -2.3339   -3.0719 H   0  0  0  0  0  0  0  0  0  0  0  0
   18.6498   -0.8036   -1.5706 N   0  0  0  0  0  0  0  0  0  0  0  0
   17.5145   -1.2733   -0.6935 C   0  0  0  0  0  0  0  0  0  0  0  0
   18.8308   -1.4994   -2.2941 H   0  0  0  0  0  0  0  0  0  0  0  0
   19.4879   -0.6771   -1.0032 H   0  0  0  0  0  0  0  0  0  0  0  0
   17.1507   -0.2717    0.4599 C   0  0  0  0  0  0  0  0  0  0  0  0
   16.0820   -0.8282    1.3097 O   0  0  0  0  0  0  0  0  0  0  0  0
   16.7384    1.1322   -0.0618 C   0  0  0  0  0  0  0  0  0  0  0  0
   15.2770   -0.9455    0.7815 H   0  0  0  0  0  0  0  0  0  0  0  0
   13.5384   -3.4700   -2.8967 C   0  0  0  0  0  0  0  0  0  0  0  0
   13.2019   -2.1163   -3.1838 O   0  0  0  0  0  0  0  0  0  0  0  0
   13.8898   -1.5304   -2.8310 H   0  0  0  0  0  0  0  0  0  0  0  0
 20 21  2  0  0  0
 20 22  1  0  0  0
 20 25  1  0  0  0
 24 25  1  0  0  0
  8  9  2  0  0  0
  8 13  1  0  0  0
  9 10  1  0  0  0
 10 11  2  0  0  0
 11 12  1  0  0  0
 11 17  1  0  0  0
 12 13  2  0  0  0
 12 15  1  0  0  0
 13 14  1  0  0  0
 15 16  2  0  0  0
 16 17  1  0  0  0
 22  4  1  0  0  0
 17  1  1  0  0  0
 25 28  1  0  0  0
 28 29  1  0  0  0
 28 30  1  0  0  0
  1  2  1  0  0  0
  1  6  1  0  0  0
  2  3  1  0  0  0
  2  4  1  0  0  0
  4  5  1  0  0  0
  5  6  1  0  0  0
  5 32  1  0  0  0
 32 33  1  0  0  0
 24 26  1  0  0  0
 24 27  1  0  0  0
 14 18  1  0  0  0
 14 19  1  0  0  0
 22 23  1  0  0  0
 29 31  1  0  0  0
  3  7  1  0  0  0
 33 34  1  0  0  0
M  END
> <minimizedAffinity>
-7.64409

$$$$
4RRA_A3T_A_201


 34 36  0  0  0  0  0  0  0  0999 V2000
   15.1874   -4.3606   -4.1078 C   0  0  0  0  0  0  0  0  0  0  0  0
   15.8838   -3.5392   -5.1631 C   0  0  0  0  0  0  0  0  0  0  0  0
   16.9854   -4.3313   -5.8352 O   0  0  0  0  0  0  0  0  0  0  0  0
   16.3793   -2.3947   -4.3236 C   0  0  0  0  0  0  0  0  0  0  0  0
   16.7257   -3.0039   -2.9796 C   0  0  0  0  0  0  0  0  0  0  0  0
   15.9859   -4.2731   -2.9264 O   0  0  0  0  0  0  0  0  0  0  0  0
   17.5999   -4.6651   -5.1630 H   0  0  0  0  0  0  0  0  0  0  0  0
   10.3956   -2.7757   -5.6612 N   0  0  0  0  0  0  0  0  0  0  0  0
   11.5771   -2.7066   -6.3917 C   0  0  0  0  0  0  0  0  0  0  0  0
   12.7975   -3.1602   -5.8139 N   0  0  0  0  0  0  0  0  0  0  0  0
   12.7136   -3.6532   -4.5410 C   0  0  0  0  0  0  0  0  0  0  0  0
   11.5399   -3.7039   -3.8629 C   0  0  0  0  0  0  0  0  0  0  0  0
   10.3760   -3.2498   -4.4237 C   0  0  0  0  0  0  0  0  0  0  0  0
    9.2072   -3.3080   -3.7946 N   0  0  0  0  0  0  0  0  0  0  0  0
   11.8202   -4.2483   -2.6667 N   0  0  0  0  0  0  0  0  0  0  0  0
   13.1365   -4.5088   -2.6057 C   0  0  0  0  0  0  0  0  0  0  0  0
   13.7101   -4.1356   -3.7683 N   0  0  0  0  0  0  0  0  0  0  0  0
    8.3940   -2.9699   -4.2347 H   0  0  0  0  0  0  0  0  0  0  0  0
    9.1543   -3.6892   -2.8885 H   0  0  0  0  0  0  0  0  0  0  0  0
   17.3668   -0.9806   -6.0336 C   0  0  0  0  0  0  0  0  0  0  0  0
   16.1589   -0.5510   -6.5427 O   0  0  0  0  0  0  0  0  0  0  0  0
   17.5386   -1.8386   -4.9924 N   0  0  0  0  0  0  0  0  0  0  0  0
   18.4453   -2.0805   -4.6947 H   0  0  0  0  0  0  0  0  0  0  0  0
   19.6906   -0.3036   -5.6539 N   0  0  0  0  0  0  0  0  0  0  0  0
   18.6364   -0.4587   -6.7232 C   0  0  0  0  0  0  0  0  0  0  0  0
   19.3338    0.2950   -4.9090 H   0  0  0  0  0  0  0  0  0  0  0  0
   20.5261    0.1188   -6.0588 H   0  0  0  0  0  0  0  0  0  0  0  0
   19.0831   -1.3662   -7.9243 C   0  0  0  0  0  0  0  0  0  0  0  0
   18.2573   -2.5862   -7.9855 O   0  0  0  0  0  0  0  0  0  0  0  0
   20.5887   -1.7453   -7.8724 C   0  0  0  0  0  0  0  0  0  0  0  0
   18.3921   -3.1086   -7.1794 H   0  0  0  0  0  0  0  0  0  0  0  0
   16.1728   -2.0203   -1.9417 C   0  0  0  0  0  0  0  0  0  0  0  0
   16.7963   -0.7623   -2.1799 O   0  0  0  0  0  0  0  0  0  0  0  0
   17.7583   -0.8581   -2.1003 H   0  0  0  0  0  0  0  0  0  0  0  0
 20 21  2  0  0  0
 20 22  1  0  0  0
 20 25  1  0  0  0
 24 25  1  0  0  0
  8  9  2  0  0  0
  8 13  1  0  0  0
  9 10  1  0  0  0
 10 11  2  0  0  0
 11 12  1  0  0  0
 11 17  1  0  0  0
 12 13  2  0  0  0
 12 15  1  0  0  0
 13 14  1  0  0  0
 15 16  2  0  0  0
 16 17  1  0  0  0
 22  4  1  0  0  0
 17  1  1  0  0  0
 25 28  1  0  0  0
 28 29  1  0  0  0
 28 30  1  0  0  0
  1  2  1  0  0  0
  1  6  1  0  0  0
  2  3  1  0  0  0
  2  4  1  0  0  0
  4  5  1  0  0  0
  5  6  1  0  0  0
  5 32  1  0  0  0
 32 33  1  0  0  0
 24 26  1  0  0  0
 24 27  1  0  0  0
 14 18  1  0  0  0
 14 19  1  0  0  0
 22 23  1  0  0  0
 29 31  1  0  0  0
  3  7  1  0  0  0
 33 34  1  0  0  0
M  END
> <minimizedAffinity>
-7.48492

$$$$
