1FKF_FK5_A_108


 60 63  0  0  0  0  0  0  0  0999 V2000
   19.9728   28.6529   21.9294 C   0  0  0  0  0  0  0  0  0  0  0  0
   18.6047   29.2778   22.0960 C   0  0  0  0  0  0  0  0  0  0  0  0
   17.9262   29.3850   20.7321 C   0  0  0  0  0  0  0  0  0  0  0  0
   18.4927   30.5383   19.9172 C   0  0  0  0  0  0  0  0  0  0  0  0
   18.2556   31.8447   20.6482 C   0  0  0  0  0  0  0  0  0  0  0  0
   18.9982   31.7561   21.9667 C   0  0  0  0  0  0  0  0  0  0  0  0
   17.9482   30.6856   23.9627 C   0  0  0  0  0  0  0  0  0  0  0  0
   17.7977   32.0006   24.6740 C   0  0  0  0  0  0  0  0  0  0  0  0
   18.8969   32.4667   25.6528 C   0  0  0  0  0  0  0  0  0  0  0  0
   19.5347   31.3357   26.4660 C   0  0  0  0  0  0  0  0  0  0  0  0
   20.8877   31.7954   27.0139 C   0  0  0  0  0  0  0  0  0  0  0  0
   21.8048   32.5118   25.9849 C   0  0  0  0  0  0  0  0  0  0  0  0
   20.9684   33.6812   25.3514 C   0  0  0  0  0  0  0  0  0  0  0  0
   21.6382   34.5512   24.2785 C   0  0  0  0  0  0  0  0  0  0  0  0
   22.4569   33.7101   23.2859 C   0  0  0  0  0  0  0  0  0  0  0  0
   22.9551   34.4189   21.9998 C   0  0  0  0  0  0  0  0  0  0  0  0
   24.3573   34.9895   22.2744 C   0  0  0  0  0  0  0  0  0  0  0  0
   25.4375   33.9614   22.0747 C   0  0  0  0  0  0  0  0  0  0  0  0
   25.9466   33.3526   23.1374 C   0  0  0  0  0  0  0  0  0  0  0  0
   26.9948   32.2502   23.1116 C   0  0  0  0  0  0  0  0  0  0  0  0
   26.2603   30.9261   23.2642 C   0  0  0  0  0  0  0  0  0  0  0  0
   25.8556   30.2376   21.9670 C   0  0  0  0  0  0  0  0  0  0  0  0
   24.7844   29.1906   22.1419 C   0  0  0  0  0  0  0  0  0  0  0  0
   23.3433   29.8395   22.2548 C   0  0  0  0  0  0  0  0  0  0  0  0
   22.2807   28.7126   22.4758 C   0  0  0  0  0  0  0  0  0  0  0  0
   18.6456   30.8786   27.6135 C   0  0  0  0  0  0  0  0  0  0  0  0
   22.0206   35.5643   21.5752 C   0  0  0  0  0  0  0  0  0  0  0  0
   25.8180   33.7408   20.5960 C   0  0  0  0  0  0  0  0  0  0  0  0
   22.9694   30.6230   20.9608 C   0  0  0  0  0  0  0  0  0  0  0  0
   18.5070   30.5934   22.7383 N   0  0  0  0  0  0  0  0  0  0  0  0
   20.9472   29.3032   22.5759 O   0  0  0  0  0  0  0  0  0  0  0  0
   20.1141   27.6748   21.2081 O   0  0  0  0  0  0  0  0  0  0  0  0
   17.5190   29.6760   24.5555 O   0  0  0  0  0  0  0  0  0  0  0  0
   16.7878   32.6750   24.4636 O   0  0  0  0  0  0  0  0  0  0  0  0
   19.8485   33.0414   24.7277 O   0  0  0  0  0  0  0  0  0  0  0  0
   18.4403   33.4773   26.5200 O   0  0  0  0  0  0  0  0  0  0  0  0
   25.9928   30.4619   24.3811 O   0  0  0  0  0  0  0  0  0  0  0  0
   24.8364   28.2994   21.0189 O   0  0  0  0  0  0  0  0  0  0  0  0
   17.8008   33.1021   27.1454 H   0  0  0  0  0  0  0  0  0  0  0  0
   24.6719   28.7974   20.2030 H   0  0  0  0  0  0  0  0  0  0  0  0
   22.6103   27.8770   23.7098 C   0  0  0  0  0  0  0  0  0  0  0  0
   22.8182   26.5825   23.5039 C   0  0  0  0  0  0  0  0  0  0  0  0
   22.6750   28.5749   25.0768 C   0  0  0  0  0  0  0  0  0  0  0  0
   23.2587   25.6090   24.5659 C   0  0  0  0  0  0  0  0  0  0  0  0
   22.4389   24.3137   24.4961 C   0  0  0  0  0  0  0  0  0  0  0  0
   23.0035   23.0971   25.2149 C   0  0  0  0  0  0  0  0  0  0  0  0
   24.4642   22.9551   24.8548 C   0  0  0  0  0  0  0  0  0  0  0  0
   25.2159   24.2334   25.1685 C   0  0  0  0  0  0  0  0  0  0  0  0
   24.7050   25.3064   24.2306 C   0  0  0  0  0  0  0  0  0  0  0  0
   24.9704   21.8834   25.6284 O   0  0  0  0  0  0  0  0  0  0  0  0
   24.8504   22.0798   26.5706 H   0  0  0  0  0  0  0  0  0  0  0  0
   21.5258   21.3453   25.9951 C   0  0  0  0  0  0  0  0  0  0  0  0
   22.3300   21.8600   24.9228 O   0  0  0  0  0  0  0  0  0  0  0  0
   22.9047   33.4229   27.9743 C   0  0  0  0  0  0  0  0  0  0  0  0
   23.0240   33.0282   26.5883 O   0  0  0  0  0  0  0  0  0  0  0  0
   21.7339   36.4168   25.8092 C   0  0  0  0  0  0  0  0  0  0  0  0
   22.4630   35.5201   24.9457 O   0  0  0  0  0  0  0  0  0  0  0  0
   28.0175   32.4542   24.2748 C   0  0  0  0  0  0  0  0  0  0  0  0
   27.6459   33.4193   25.4137 C   0  0  0  0  0  0  0  0  0  0  0  0
   27.2260   33.0649   26.6143 C   0  0  0  0  0  0  0  0  0  0  0  0
  1  2  1  0  0  0
  1 31  1  0  0  0
  1 32  2  0  0  0
  2  3  1  0  0  0
  2 30  1  0  0  0
  3  4  1  0  0  0
  4  5  1  0  0  0
  5  6  1  0  0  0
  6 30  1  0  0  0
  7  8  1  0  0  0
  7 30  1  0  0  0
  7 33  2  0  0  0
  8  9  1  0  0  0
  8 34  2  0  0  0
  9 10  1  0  0  0
  9 35  1  0  0  0
  9 36  1  0  0  0
 10 11  1  0  0  0
 10 26  1  0  0  0
 11 12  1  0  0  0
 12 13  1  0  0  0
 12 55  1  0  0  0
 13 14  1  0  0  0
 13 35  1  0  0  0
 14 15  1  0  0  0
 14 57  1  0  0  0
 15 16  1  0  0  0
 16 17  1  0  0  0
 16 27  1  0  0  0
 17 18  1  0  0  0
 18 19  2  0  0  0
 18 28  1  0  0  0
 19 20  1  0  0  0
 20 21  1  0  0  0
 20 58  1  0  0  0
 21 22  1  0  0  0
 21 37  2  0  0  0
 22 23  1  0  0  0
 23 24  1  0  0  0
 23 38  1  0  0  0
 24 25  1  0  0  0
 24 29  1  0  0  0
 25 41  1  0  0  0
 25 31  1  0  0  0
 41 42  2  0  0  0
 41 43  1  0  0  0
 42 44  1  0  0  0
 44 45  1  0  0  0
 44 49  1  0  0  0
 45 46  1  0  0  0
 46 47  1  0  0  0
 46 53  1  0  0  0
 47 48  1  0  0  0
 47 50  1  0  0  0
 48 49  1  0  0  0
 58 59  1  0  0  0
 59 60  2  0  0  0
 54 55  1  0  0  0
 56 57  1  0  0  0
 52 53  1  0  0  0
 36 39  1  0  0  0
 38 40  1  0  0  0
 50 51  1  0  0  0
M  END
> <minimizedAffinity>
-11.64438

$$$$
1FKF_FK5_A_108


 60 63  0  0  0  0  0  0  0  0999 V2000
   20.0797   28.6502   21.9259 C   0  0  0  0  0  0  0  0  0  0  0  0
   18.6909   29.2286   22.0894 C   0  0  0  0  0  0  0  0  0  0  0  0
   18.0053   29.2955   20.7265 C   0  0  0  0  0  0  0  0  0  0  0  0
   18.5286   30.4581   19.8961 C   0  0  0  0  0  0  0  0  0  0  0  0
   18.2477   31.7640   20.6122 C   0  0  0  0  0  0  0  0  0  0  0  0
   18.9967   31.7175   21.9293 C   0  0  0  0  0  0  0  0  0  0  0  0
   17.9905   30.6348   23.9413 C   0  0  0  0  0  0  0  0  0  0  0  0
   17.7959   31.9522   24.6373 C   0  0  0  0  0  0  0  0  0  0  0  0
   18.8807   32.4684   25.6070 C   0  0  0  0  0  0  0  0  0  0  0  0
   19.5601   31.3702   26.4315 C   0  0  0  0  0  0  0  0  0  0  0  0
   20.8977   31.8838   26.9696 C   0  0  0  0  0  0  0  0  0  0  0  0
   21.7861   32.6196   25.9292 C   0  0  0  0  0  0  0  0  0  0  0  0
   20.9074   33.7511   25.2845 C   0  0  0  0  0  0  0  0  0  0  0  0
   21.5432   34.6312   24.1992 C   0  0  0  0  0  0  0  0  0  0  0  0
   22.3882   33.8074   23.2141 C   0  0  0  0  0  0  0  0  0  0  0  0
   22.8576   34.5178   21.9180 C   0  0  0  0  0  0  0  0  0  0  0  0
   24.2397   35.1405   22.1813 C   0  0  0  0  0  0  0  0  0  0  0  0
   25.3547   34.1487   21.9904 C   0  0  0  0  0  0  0  0  0  0  0  0
   25.8879   33.5710   23.0587 C   0  0  0  0  0  0  0  0  0  0  0  0
   26.9741   32.5059   23.0426 C   0  0  0  0  0  0  0  0  0  0  0  0
   26.2871   31.1587   23.2133 C   0  0  0  0  0  0  0  0  0  0  0  0
   25.9032   30.4409   21.9257 C   0  0  0  0  0  0  0  0  0  0  0  0
   24.8700   29.3591   22.1165 C   0  0  0  0  0  0  0  0  0  0  0  0
   23.4073   29.9583   22.2263 C   0  0  0  0  0  0  0  0  0  0  0  0
   22.3856   28.7975   22.4641 C   0  0  0  0  0  0  0  0  0  0  0  0
   18.6909   30.8960   27.5873 C   0  0  0  0  0  0  0  0  0  0  0  0
   21.8822   35.6245   21.4828 C   0  0  0  0  0  0  0  0  0  0  0  0
   25.7387   33.9239   20.5132 C   0  0  0  0  0  0  0  0  0  0  0  0
   23.0025   30.7126   20.9243 C   0  0  0  0  0  0  0  0  0  0  0  0
   18.5488   30.5476   22.7162 N   0  0  0  0  0  0  0  0  0  0  0  0
   21.0324   29.3420   22.5614 O   0  0  0  0  0  0  0  0  0  0  0  0
   20.2533   27.6691   21.2158 O   0  0  0  0  0  0  0  0  0  0  0  0
   17.5988   29.6180   24.5474 O   0  0  0  0  0  0  0  0  0  0  0  0
   16.7623   32.5881   24.4221 O   0  0  0  0  0  0  0  0  0  0  0  0
   19.8089   33.0649   24.6720 O   0  0  0  0  0  0  0  0  0  0  0  0
   18.3913   33.4726   26.4635 O   0  0  0  0  0  0  0  0  0  0  0  0
   26.0392   30.6989   24.3365 O   0  0  0  0  0  0  0  0  0  0  0  0
   24.9502   28.4568   21.0041 O   0  0  0  0  0  0  0  0  0  0  0  0
   17.7671   33.0827   27.0954 H   0  0  0  0  0  0  0  0  0  0  0  0
   24.7659   28.9389   20.1828 H   0  0  0  0  0  0  0  0  0  0  0  0
   22.7478   27.9889   23.7069 C   0  0  0  0  0  0  0  0  0  0  0  0
   23.2577   26.7822   23.4942 C   0  0  0  0  0  0  0  0  0  0  0  0
   22.5005   28.6115   25.0893 C   0  0  0  0  0  0  0  0  0  0  0  0
   23.7774   25.8720   24.5764 C   0  0  0  0  0  0  0  0  0  0  0  0
   24.2547   26.6805   25.7902 C   0  0  0  0  0  0  0  0  0  0  0  0
   24.4325   25.9250   27.0991 C   0  0  0  0  0  0  0  0  0  0  0  0
   23.2097   25.0692   27.3356 C   0  0  0  0  0  0  0  0  0  0  0  0
   22.9621   24.1567   26.1509 C   0  0  0  0  0  0  0  0  0  0  0  0
   22.5825   25.0290   24.9732 C   0  0  0  0  0  0  0  0  0  0  0  0
   23.4674   24.3065   28.4997 O   0  0  0  0  0  0  0  0  0  0  0  0
   24.2621   23.7672   28.3635 H   0  0  0  0  0  0  0  0  0  0  0  0
   25.5171   27.8794   28.0293 C   0  0  0  0  0  0  0  0  0  0  0  0
   24.6458   26.7599   28.2509 O   0  0  0  0  0  0  0  0  0  0  0  0
   22.8234   33.7172   27.8572 C   0  0  0  0  0  0  0  0  0  0  0  0
   22.9881   33.1856   26.5225 O   0  0  0  0  0  0  0  0  0  0  0  0
   21.5821   36.7885   25.2840 C   0  0  0  0  0  0  0  0  0  0  0  0
   22.3352   35.6363   24.8521 O   0  0  0  0  0  0  0  0  0  0  0  0
   27.9923   32.7596   24.2000 C   0  0  0  0  0  0  0  0  0  0  0  0
   27.5697   33.6831   25.3556 C   0  0  0  0  0  0  0  0  0  0  0  0
   27.9253   33.5435   26.6195 C   0  0  0  0  0  0  0  0  0  0  0  0
  1  2  1  0  0  0
  1 31  1  0  0  0
  1 32  2  0  0  0
  2  3  1  0  0  0
  2 30  1  0  0  0
  3  4  1  0  0  0
  4  5  1  0  0  0
  5  6  1  0  0  0
  6 30  1  0  0  0
  7  8  1  0  0  0
  7 30  1  0  0  0
  7 33  2  0  0  0
  8  9  1  0  0  0
  8 34  2  0  0  0
  9 10  1  0  0  0
  9 35  1  0  0  0
  9 36  1  0  0  0
 10 11  1  0  0  0
 10 26  1  0  0  0
 11 12  1  0  0  0
 12 13  1  0  0  0
 12 55  1  0  0  0
 13 14  1  0  0  0
 13 35  1  0  0  0
 14 15  1  0  0  0
 14 57  1  0  0  0
 15 16  1  0  0  0
 16 17  1  0  0  0
 16 27  1  0  0  0
 17 18  1  0  0  0
 18 19  2  0  0  0
 18 28  1  0  0  0
 19 20  1  0  0  0
 20 21  1  0  0  0
 20 58  1  0  0  0
 21 22  1  0  0  0
 21 37  2  0  0  0
 22 23  1  0  0  0
 23 24  1  0  0  0
 23 38  1  0  0  0
 24 25  1  0  0  0
 24 29  1  0  0  0
 25 41  1  0  0  0
 25 31  1  0  0  0
 41 42  2  0  0  0
 41 43  1  0  0  0
 42 44  1  0  0  0
 44 45  1  0  0  0
 44 49  1  0  0  0
 45 46  1  0  0  0
 46 47  1  0  0  0
 46 53  1  0  0  0
 47 48  1  0  0  0
 47 50  1  0  0  0
 48 49  1  0  0  0
 58 59  1  0  0  0
 59 60  2  0  0  0
 54 55  1  0  0  0
 56 57  1  0  0  0
 52 53  1  0  0  0
 36 39  1  0  0  0
 38 40  1  0  0  0
 50 51  1  0  0  0
M  END
> <minimizedAffinity>
-9.89111

$$$$
