5AML_51J_A_266


 25 25  0  0  0  0  0  0  0  0999 V2000
   -4.9653    3.2076   13.8649 C   0  0  0  0  0  0  0  0  0  0  0  0
   -5.5140    4.5647   14.0309 C   0  0  0  0  0  0  0  0  0  0  0  0
   -6.2572    4.8031   15.1745 C   0  0  0  0  0  0  0  0  0  0  0  0
   -5.2701    2.2563   14.8735 C   0  0  0  0  0  0  0  0  0  0  0  0
   -6.1084    2.5116   15.9814 C   0  0  0  0  0  0  0  0  0  0  0  0
   -6.5645    3.8404   16.1115 C   0  0  0  0  0  0  0  0  0  0  0  0
   -6.4064    1.3224   17.1655 S   0  0  0  0  0  0  0  0  0  0  0  0
   -7.7751    0.8615   16.9168 O   0  0  0  0  0  0  0  0  0  0  0  0
   -6.1348    1.9162   18.4297 O   0  0  0  0  0  0  0  0  0  0  0  0
   -5.3887    0.1392   16.9616 N   0  0  0  0  0  0  0  0  0  0  0  0
   -5.5610   -0.3060   16.0602 H   0  0  0  0  0  0  0  0  0  0  0  0
   -5.5097   -0.5457   17.7077 H   0  0  0  0  0  0  0  0  0  0  0  0
   -5.1899    5.6823   13.1055 C   0  0  0  0  0  0  0  0  0  0  0  0
   -5.8674    5.8084   12.0574 O   0  0  0  0  0  0  0  0  0  0  0  0
   -4.2892    6.4732   13.4166 O   0  0  0  0  0  0  0  0  0  0  0  0
   -6.5408    5.1883   11.8574 H   0  0  0  0  0  0  0  0  0  0  0  0
   -2.7345    3.3282   12.6836 O   0  0  0  0  0  0  0  0  0  0  0  0
   -4.0380    2.7476   12.5631 S   0  0  0  0  0  0  0  0  0  0  0  0
   -4.7230    2.9754   11.3623 O   0  0  0  0  0  0  0  0  0  0  0  0
   -3.8291    1.1320   12.6252 N   0  0  0  0  0  0  0  0  0  0  0  0
   -4.2449    0.7995   13.4952 H   0  0  0  0  0  0  0  0  0  0  0  0
   -4.4064    0.3568   11.5350 C   0  0  0  0  0  0  0  0  0  0  0  0
   -3.8486   -0.9844   11.4754 C   0  0  0  0  0  0  0  0  0  0  0  0
   -3.4091   -2.0708   11.4379 C   0  0  0  0  0  0  0  0  0  0  0  0
   -2.8684   -3.4167   11.4034 C   0  0  0  0  0  0  0  0  0  0  0  0
 17 18  2  0  0  0
 18 19  2  0  0  0
 18 20  1  0  0  0
 18  1  1  0  0  0
 20 22  1  0  0  0
 22 23  1  0  0  0
 23 24  3  0  0  0
 24 25  1  0  0  0
  1  2  1  0  0  0
  1  4  2  0  0  0
  2  3  2  0  0  0
  2 13  1  0  0  0
  3  6  1  0  0  0
 13 14  1  0  0  0
 13 15  2  0  0  0
  4  5  1  0  0  0
  5  6  2  0  0  0
  5  7  1  0  0  0
  7  8  2  0  0  0
  7  9  2  0  0  0
  7 10  1  0  0  0
 20 21  1  0  0  0
 14 16  1  0  0  0
 10 11  1  0  0  0
 10 12  1  0  0  0
M  END
> <minimizedAffinity>
-7.76065

$$$$
5AML_51J_A_266


 25 25  0  0  0  0  0  0  0  0999 V2000
   -4.7753    3.6530   13.4609 C   0  0  0  0  0  0  0  0  0  0  0  0
   -5.6989    4.7436   13.8186 C   0  0  0  0  0  0  0  0  0  0  0  0
   -6.3534    4.6354   15.0339 C   0  0  0  0  0  0  0  0  0  0  0  0
   -4.6594    2.5742   14.3763 C   0  0  0  0  0  0  0  0  0  0  0  0
   -5.4126    2.4544   15.5652 C   0  0  0  0  0  0  0  0  0  0  0  0
   -6.2438    3.5510   15.8773 C   0  0  0  0  0  0  0  0  0  0  0  0
   -5.1974    1.1389   16.6272 S   0  0  0  0  0  0  0  0  0  0  0  0
   -3.7839    0.7710   16.5080 O   0  0  0  0  0  0  0  0  0  0  0  0
   -6.1623    0.1551   16.2727 O   0  0  0  0  0  0  0  0  0  0  0  0
   -5.5134    1.6154   18.0937 N   0  0  0  0  0  0  0  0  0  0  0  0
   -4.8349    2.3232   18.3748 H   0  0  0  0  0  0  0  0  0  0  0  0
   -5.4576    0.8196   18.7292 H   0  0  0  0  0  0  0  0  0  0  0  0
   -5.8397    5.9786   13.0029 C   0  0  0  0  0  0  0  0  0  0  0  0
   -4.8058    6.6272   12.7138 O   0  0  0  0  0  0  0  0  0  0  0  0
   -6.9656    6.3058   12.6041 O   0  0  0  0  0  0  0  0  0  0  0  0
   -3.9716    6.3469   13.0355 H   0  0  0  0  0  0  0  0  0  0  0  0
   -2.8672    4.6195   12.1150 O   0  0  0  0  0  0  0  0  0  0  0  0
   -3.8948    3.6242   12.0503 S   0  0  0  0  0  0  0  0  0  0  0  0
   -4.7435    3.6633   10.9362 O   0  0  0  0  0  0  0  0  0  0  0  0
   -3.1353    2.1854   11.9469 N   0  0  0  0  0  0  0  0  0  0  0  0
   -3.4362    1.6191   12.7401 H   0  0  0  0  0  0  0  0  0  0  0  0
   -3.3688    1.4096   10.7360 C   0  0  0  0  0  0  0  0  0  0  0  0
   -3.2484   -0.0183   10.9814 C   0  0  0  0  0  0  0  0  0  0  0  0
   -3.1653   -1.1723   11.1727 C   0  0  0  0  0  0  0  0  0  0  0  0
   -3.0747   -2.6005   11.4105 C   0  0  0  0  0  0  0  0  0  0  0  0
 17 18  2  0  0  0
 18 19  2  0  0  0
 18 20  1  0  0  0
 18  1  1  0  0  0
 20 22  1  0  0  0
 22 23  1  0  0  0
 23 24  3  0  0  0
 24 25  1  0  0  0
  1  2  1  0  0  0
  1  4  2  0  0  0
  2  3  2  0  0  0
  2 13  1  0  0  0
  3  6  1  0  0  0
 13 14  1  0  0  0
 13 15  2  0  0  0
  4  5  1  0  0  0
  5  6  2  0  0  0
  5  7  1  0  0  0
  7  8  2  0  0  0
  7  9  2  0  0  0
  7 10  1  0  0  0
 20 21  1  0  0  0
 14 16  1  0  0  0
 10 11  1  0  0  0
 10 12  1  0  0  0
M  END
> <minimizedAffinity>
-7.50121

$$$$
5AML_51J_A_266


 25 25  0  0  0  0  0  0  0  0999 V2000
   -5.4573    3.7902   14.2319 C   0  0  0  0  0  0  0  0  0  0  0  0
   -4.6783    2.9537   13.3024 C   0  0  0  0  0  0  0  0  0  0  0  0
   -4.5086    1.6242   13.6501 C   0  0  0  0  0  0  0  0  0  0  0  0
   -5.9394    3.1704   15.4145 C   0  0  0  0  0  0  0  0  0  0  0  0
   -5.6686    1.8330   15.7797 C   0  0  0  0  0  0  0  0  0  0  0  0
   -4.9591    1.0696   14.8285 C   0  0  0  0  0  0  0  0  0  0  0  0
   -6.3059    1.1529   17.2066 S   0  0  0  0  0  0  0  0  0  0  0  0
   -5.4254    0.0258   17.5263 O   0  0  0  0  0  0  0  0  0  0  0  0
   -7.6757    0.8627   16.9540 O   0  0  0  0  0  0  0  0  0  0  0  0
   -6.2462    2.2312   18.3516 N   0  0  0  0  0  0  0  0  0  0  0  0
   -5.2728    2.4589   18.5539 H   0  0  0  0  0  0  0  0  0  0  0  0
   -6.6903    1.8602   19.1916 H   0  0  0  0  0  0  0  0  0  0  0  0
   -4.2022    3.4462   11.9829 C   0  0  0  0  0  0  0  0  0  0  0  0
   -5.0078    3.4593   11.0217 O   0  0  0  0  0  0  0  0  0  0  0  0
   -3.0398    3.8622   11.8847 O   0  0  0  0  0  0  0  0  0  0  0  0
   -5.8795    3.1353   11.1365 H   0  0  0  0  0  0  0  0  0  0  0  0
   -6.2537    5.9928   15.1809 O   0  0  0  0  0  0  0  0  0  0  0  0
   -5.7736    5.4016   13.9682 S   0  0  0  0  0  0  0  0  0  0  0  0
   -6.5670    5.5696   12.8256 O   0  0  0  0  0  0  0  0  0  0  0  0
   -4.3693    6.1508   13.6159 N   0  0  0  0  0  0  0  0  0  0  0  0
   -4.5806    7.1304   13.4257 H   0  0  0  0  0  0  0  0  0  0  0  0
   -3.3343    6.1128   14.6406 C   0  0  0  0  0  0  0  0  0  0  0  0
   -2.6378    7.3844   14.7480 C   0  0  0  0  0  0  0  0  0  0  0  0
   -2.0897    8.4173   14.8369 C   0  0  0  0  0  0  0  0  0  0  0  0
   -1.4215    9.7007   14.9422 C   0  0  0  0  0  0  0  0  0  0  0  0
 17 18  2  0  0  0
 18 19  2  0  0  0
 18 20  1  0  0  0
 18  1  1  0  0  0
 20 22  1  0  0  0
 22 23  1  0  0  0
 23 24  3  0  0  0
 24 25  1  0  0  0
  1  2  1  0  0  0
  1  4  2  0  0  0
  2  3  2  0  0  0
  2 13  1  0  0  0
  3  6  1  0  0  0
 13 14  1  0  0  0
 13 15  2  0  0  0
  4  5  1  0  0  0
  5  6  2  0  0  0
  5  7  1  0  0  0
  7  8  2  0  0  0
  7  9  2  0  0  0
  7 10  1  0  0  0
 20 21  1  0  0  0
 14 16  1  0  0  0
 10 11  1  0  0  0
 10 12  1  0  0  0
M  END
> <minimizedAffinity>
-7.26095

$$$$
5AML_51J_A_266


 25 25  0  0  0  0  0  0  0  0999 V2000
   -4.9008    3.3057   13.6514 C   0  0  0  0  0  0  0  0  0  0  0  0
   -5.6119    4.5471   14.0028 C   0  0  0  0  0  0  0  0  0  0  0  0
   -6.3417    4.5379   15.1795 C   0  0  0  0  0  0  0  0  0  0  0  0
   -5.0491    2.2013   14.5309 C   0  0  0  0  0  0  0  0  0  0  0  0
   -5.8764    2.2010   15.6759 C   0  0  0  0  0  0  0  0  0  0  0  0
   -6.4933    3.4313   15.9866 C   0  0  0  0  0  0  0  0  0  0  0  0
   -5.9819    0.8412   16.6980 S   0  0  0  0  0  0  0  0  0  0  0  0
   -5.1254   -0.1754   16.0812 O   0  0  0  0  0  0  0  0  0  0  0  0
   -7.3638    0.5340   16.8412 O   0  0  0  0  0  0  0  0  0  0  0  0
   -5.4266    1.2313   18.1181 N   0  0  0  0  0  0  0  0  0  0  0  0
   -4.4346    1.4572   18.0450 H   0  0  0  0  0  0  0  0  0  0  0  0
   -5.5505    0.4474   18.7588 H   0  0  0  0  0  0  0  0  0  0  0  0
   -5.4630    5.8068   13.2273 C   0  0  0  0  0  0  0  0  0  0  0  0
   -4.4223    6.4887   13.3857 O   0  0  0  0  0  0  0  0  0  0  0  0
   -6.3512    6.1220   12.4239 O   0  0  0  0  0  0  0  0  0  0  0  0
   -3.7732    6.2163   14.0041 H   0  0  0  0  0  0  0  0  0  0  0  0
   -2.9708    4.1712   12.2685 O   0  0  0  0  0  0  0  0  0  0  0  0
   -3.9655    3.1412   12.2860 S   0  0  0  0  0  0  0  0  0  0  0  0
   -4.7710    3.0208   11.1459 O   0  0  0  0  0  0  0  0  0  0  0  0
   -3.1608    1.7266   12.3806 N   0  0  0  0  0  0  0  0  0  0  0  0
   -3.8038    1.0294   12.7560 H   0  0  0  0  0  0  0  0  0  0  0  0
   -2.6165    1.2008   11.1356 C   0  0  0  0  0  0  0  0  0  0  0  0
   -1.4647    1.9663   10.6873 C   0  0  0  0  0  0  0  0  0  0  0  0
   -0.5449    2.5916   10.3157 C   0  0  0  0  0  0  0  0  0  0  0  0
    0.5878    3.3662    9.8450 C   0  0  0  0  0  0  0  0  0  0  0  0
 17 18  2  0  0  0
 18 19  2  0  0  0
 18 20  1  0  0  0
 18  1  1  0  0  0
 20 22  1  0  0  0
 22 23  1  0  0  0
 23 24  3  0  0  0
 24 25  1  0  0  0
  1  2  1  0  0  0
  1  4  2  0  0  0
  2  3  2  0  0  0
  2 13  1  0  0  0
  3  6  1  0  0  0
 13 14  1  0  0  0
 13 15  2  0  0  0
  4  5  1  0  0  0
  5  6  2  0  0  0
  5  7  1  0  0  0
  7  8  2  0  0  0
  7  9  2  0  0  0
  7 10  1  0  0  0
 20 21  1  0  0  0
 14 16  1  0  0  0
 10 11  1  0  0  0
 10 12  1  0  0  0
M  END
> <minimizedAffinity>
-7.11476

$$$$
5AML_51J_A_266


 25 25  0  0  0  0  0  0  0  0999 V2000
   -5.2186    3.7028   14.3642 C   0  0  0  0  0  0  0  0  0  0  0  0
   -4.4425    2.8500   13.4472 C   0  0  0  0  0  0  0  0  0  0  0  0
   -4.3707    1.5024   13.7569 C   0  0  0  0  0  0  0  0  0  0  0  0
   -5.7986    3.0768   15.4986 C   0  0  0  0  0  0  0  0  0  0  0  0
   -5.6273    1.7145   15.8306 C   0  0  0  0  0  0  0  0  0  0  0  0
   -4.9151    0.9395   14.8909 C   0  0  0  0  0  0  0  0  0  0  0  0
   -6.3785    1.0300   17.1988 S   0  0  0  0  0  0  0  0  0  0  0  0
   -5.6902   -0.2442   17.4228 O   0  0  0  0  0  0  0  0  0  0  0  0
   -7.7743    0.9814   16.9270 O   0  0  0  0  0  0  0  0  0  0  0  0
   -6.1613    1.9888   18.4280 N   0  0  0  0  0  0  0  0  0  0  0  0
   -5.1662    2.0425   18.6456 H   0  0  0  0  0  0  0  0  0  0  0  0
   -6.6669    1.6256   19.2360 H   0  0  0  0  0  0  0  0  0  0  0  0
   -3.8688    3.3538   12.1716 C   0  0  0  0  0  0  0  0  0  0  0  0
   -2.6761    3.7419   12.1626 O   0  0  0  0  0  0  0  0  0  0  0  0
   -4.5730    3.3388   11.1529 O   0  0  0  0  0  0  0  0  0  0  0  0
   -2.1762    3.7380   12.9551 H   0  0  0  0  0  0  0  0  0  0  0  0
   -4.1415    5.9625   14.0174 O   0  0  0  0  0  0  0  0  0  0  0  0
   -5.4243    5.3380   14.1406 S   0  0  0  0  0  0  0  0  0  0  0  0
   -6.2934    5.8640   15.1056 O   0  0  0  0  0  0  0  0  0  0  0  0
   -6.1876    5.5712   12.7191 N   0  0  0  0  0  0  0  0  0  0  0  0
   -6.6450    4.6953   12.4663 H   0  0  0  0  0  0  0  0  0  0  0  0
   -7.1957    6.6224   12.6843 C   0  0  0  0  0  0  0  0  0  0  0  0
   -6.8578    7.6592   11.7228 C   0  0  0  0  0  0  0  0  0  0  0  0
   -6.5982    8.5032   10.9512 C   0  0  0  0  0  0  0  0  0  0  0  0
   -6.2890    9.5494    9.9949 C   0  0  0  0  0  0  0  0  0  0  0  0
 17 18  2  0  0  0
 18 19  2  0  0  0
 18 20  1  0  0  0
 18  1  1  0  0  0
 20 22  1  0  0  0
 22 23  1  0  0  0
 23 24  3  0  0  0
 24 25  1  0  0  0
  1  2  1  0  0  0
  1  4  2  0  0  0
  2  3  2  0  0  0
  2 13  1  0  0  0
  3  6  1  0  0  0
 13 14  1  0  0  0
 13 15  2  0  0  0
  4  5  1  0  0  0
  5  6  2  0  0  0
  5  7  1  0  0  0
  7  8  2  0  0  0
  7  9  2  0  0  0
  7 10  1  0  0  0
 20 21  1  0  0  0
 14 16  1  0  0  0
 10 11  1  0  0  0
 10 12  1  0  0  0
M  END
> <minimizedAffinity>
-6.98995

$$$$
5AML_51J_A_266


 25 25  0  0  0  0  0  0  0  0999 V2000
   -4.9489    2.8262   13.5769 C   0  0  0  0  0  0  0  0  0  0  0  0
   -5.3247    4.2460   13.6924 C   0  0  0  0  0  0  0  0  0  0  0  0
   -5.9294    4.6385   14.8746 C   0  0  0  0  0  0  0  0  0  0  0  0
   -5.2654    1.9797   14.6716 C   0  0  0  0  0  0  0  0  0  0  0  0
   -5.9655    2.3980   15.8250 C   0  0  0  0  0  0  0  0  0  0  0  0
   -6.2562    3.7767   15.8992 C   0  0  0  0  0  0  0  0  0  0  0  0
   -6.2859    1.3255   17.1102 S   0  0  0  0  0  0  0  0  0  0  0  0
   -5.1767    0.3678   17.1023 O   0  0  0  0  0  0  0  0  0  0  0  0
   -7.5968    0.8111   16.9065 O   0  0  0  0  0  0  0  0  0  0  0  0
   -6.2927    2.1385   18.4579 N   0  0  0  0  0  0  0  0  0  0  0  0
   -5.3624    2.5199   18.6296 H   0  0  0  0  0  0  0  0  0  0  0  0
   -6.5539    1.5207   19.2264 H   0  0  0  0  0  0  0  0  0  0  0  0
   -4.9630    5.2601   12.6672 C   0  0  0  0  0  0  0  0  0  0  0  0
   -5.8077    5.5496   11.7863 O   0  0  0  0  0  0  0  0  0  0  0  0
   -3.8569    5.8125   12.7378 O   0  0  0  0  0  0  0  0  0  0  0  0
   -6.6341    5.1084   11.7666 H   0  0  0  0  0  0  0  0  0  0  0  0
   -4.8938    2.6106   11.0595 O   0  0  0  0  0  0  0  0  0  0  0  0
   -4.2012    2.1829   12.2377 S   0  0  0  0  0  0  0  0  0  0  0  0
   -4.0095    0.8036   12.3927 O   0  0  0  0  0  0  0  0  0  0  0  0
   -2.6979    2.8054   12.1387 N   0  0  0  0  0  0  0  0  0  0  0  0
   -2.2763    2.7449   13.0656 H   0  0  0  0  0  0  0  0  0  0  0  0
   -1.7878    2.1673   11.1968 C   0  0  0  0  0  0  0  0  0  0  0  0
   -0.5453    2.9102   11.0630 C   0  0  0  0  0  0  0  0  0  0  0  0
    0.4612    3.5044   10.9692 C   0  0  0  0  0  0  0  0  0  0  0  0
    1.7066    4.2412   10.8654 C   0  0  0  0  0  0  0  0  0  0  0  0
 17 18  2  0  0  0
 18 19  2  0  0  0
 18 20  1  0  0  0
 18  1  1  0  0  0
 20 22  1  0  0  0
 22 23  1  0  0  0
 23 24  3  0  0  0
 24 25  1  0  0  0
  1  2  1  0  0  0
  1  4  2  0  0  0
  2  3  2  0  0  0
  2 13  1  0  0  0
  3  6  1  0  0  0
 13 14  1  0  0  0
 13 15  2  0  0  0
  4  5  1  0  0  0
  5  6  2  0  0  0
  5  7  1  0  0  0
  7  8  2  0  0  0
  7  9  2  0  0  0
  7 10  1  0  0  0
 20 21  1  0  0  0
 14 16  1  0  0  0
 10 11  1  0  0  0
 10 12  1  0  0  0
M  END
> <minimizedAffinity>
-6.95958

$$$$
5AML_51J_A_266


 25 25  0  0  0  0  0  0  0  0999 V2000
   -3.0618    2.2958   11.8955 C   0  0  0  0  0  0  0  0  0  0  0  0
   -2.7520    1.3489   10.8103 C   0  0  0  0  0  0  0  0  0  0  0  0
   -1.6222    1.6122   10.0544 C   0  0  0  0  0  0  0  0  0  0  0  0
   -2.1952    3.4091   12.0528 C   0  0  0  0  0  0  0  0  0  0  0  0
   -1.1029    3.6940   11.2035 C   0  0  0  0  0  0  0  0  0  0  0  0
   -0.8280    2.7272   10.2134 C   0  0  0  0  0  0  0  0  0  0  0  0
   -0.0919    5.0393   11.4737 S   0  0  0  0  0  0  0  0  0  0  0  0
   -0.5941    5.6619   12.7016 O   0  0  0  0  0  0  0  0  0  0  0  0
   -0.1142    5.8223   10.2859 O   0  0  0  0  0  0  0  0  0  0  0  0
    1.3821    4.5299   11.6860 N   0  0  0  0  0  0  0  0  0  0  0  0
    1.4276    3.9639   12.5333 H   0  0  0  0  0  0  0  0  0  0  0  0
    2.0084    5.3298   11.7774 H   0  0  0  0  0  0  0  0  0  0  0  0
   -3.5144    0.0903   10.5986 C   0  0  0  0  0  0  0  0  0  0  0  0
   -4.5895    0.1418    9.9545 O   0  0  0  0  0  0  0  0  0  0  0  0
   -3.0461   -0.9715   11.0310 O   0  0  0  0  0  0  0  0  0  0  0  0
   -4.9107    0.9654    9.6440 H   0  0  0  0  0  0  0  0  0  0  0  0
   -4.1322    1.0363   13.8072 O   0  0  0  0  0  0  0  0  0  0  0  0
   -4.3678    2.1287   12.9117 S   0  0  0  0  0  0  0  0  0  0  0  0
   -5.5629    2.1008   12.1811 O   0  0  0  0  0  0  0  0  0  0  0  0
   -4.4746    3.4667   13.8369 N   0  0  0  0  0  0  0  0  0  0  0  0
   -4.1493    4.2558   13.2784 H   0  0  0  0  0  0  0  0  0  0  0  0
   -5.7967    3.8026   14.3487 C   0  0  0  0  0  0  0  0  0  0  0  0
   -6.1393    3.0062   15.5157 C   0  0  0  0  0  0  0  0  0  0  0  0
   -6.4249    2.3753   16.4620 C   0  0  0  0  0  0  0  0  0  0  0  0
   -6.7798    1.6052   17.6391 C   0  0  0  0  0  0  0  0  0  0  0  0
 17 18  2  0  0  0
 18 19  2  0  0  0
 18 20  1  0  0  0
 18  1  1  0  0  0
 20 22  1  0  0  0
 22 23  1  0  0  0
 23 24  3  0  0  0
 24 25  1  0  0  0
  1  2  1  0  0  0
  1  4  2  0  0  0
  2  3  2  0  0  0
  2 13  1  0  0  0
  3  6  1  0  0  0
 13 14  1  0  0  0
 13 15  2  0  0  0
  4  5  1  0  0  0
  5  6  2  0  0  0
  5  7  1  0  0  0
  7  8  2  0  0  0
  7  9  2  0  0  0
  7 10  1  0  0  0
 20 21  1  0  0  0
 14 16  1  0  0  0
 10 11  1  0  0  0
 10 12  1  0  0  0
M  END
> <minimizedAffinity>
-6.81546

$$$$
5AML_51J_A_266


 25 25  0  0  0  0  0  0  0  0999 V2000
   -2.9175    3.5299   11.9312 C   0  0  0  0  0  0  0  0  0  0  0  0
   -3.2236    2.1565   11.4946 C   0  0  0  0  0  0  0  0  0  0  0  0
   -2.2313    1.4853   10.8003 C   0  0  0  0  0  0  0  0  0  0  0  0
   -1.6472    4.0556   11.5773 C   0  0  0  0  0  0  0  0  0  0  0  0
   -0.6946    3.3728   10.7888 C   0  0  0  0  0  0  0  0  0  0  0  0
   -1.0245    2.0457   10.4414 C   0  0  0  0  0  0  0  0  0  0  0  0
    0.8214    4.0627   10.4274 S   0  0  0  0  0  0  0  0  0  0  0  0
    0.5622    5.4926   10.2388 O   0  0  0  0  0  0  0  0  0  0  0  0
    1.3540    3.3423    9.3220 O   0  0  0  0  0  0  0  0  0  0  0  0
    1.7832    3.8415   11.6536 N   0  0  0  0  0  0  0  0  0  0  0  0
    1.4245    4.3484   12.4628 H   0  0  0  0  0  0  0  0  0  0  0  0
    2.7146    4.1867   11.4217 H   0  0  0  0  0  0  0  0  0  0  0  0
   -4.4719    1.4484   11.8826 C   0  0  0  0  0  0  0  0  0  0  0  0
   -5.4922    1.5969   11.1682 O   0  0  0  0  0  0  0  0  0  0  0  0
   -4.4542    0.7067   12.8743 O   0  0  0  0  0  0  0  0  0  0  0  0
   -5.4651    2.1678   10.4257 H   0  0  0  0  0  0  0  0  0  0  0  0
   -5.1650    4.6829   12.0063 O   0  0  0  0  0  0  0  0  0  0  0  0
   -3.9826    4.4775   12.7877 S   0  0  0  0  0  0  0  0  0  0  0  0
   -3.3420    5.6230   13.2780 O   0  0  0  0  0  0  0  0  0  0  0  0
   -4.4472    3.6567   14.1174 N   0  0  0  0  0  0  0  0  0  0  0  0
   -3.7806    3.8680   14.8600 H   0  0  0  0  0  0  0  0  0  0  0  0
   -5.7818    3.9419   14.6274 C   0  0  0  0  0  0  0  0  0  0  0  0
   -6.2087    2.9493   15.6000 C   0  0  0  0  0  0  0  0  0  0  0  0
   -6.5391    2.1417   16.3834 C   0  0  0  0  0  0  0  0  0  0  0  0
   -6.9405    1.1342   17.3470 C   0  0  0  0  0  0  0  0  0  0  0  0
 17 18  2  0  0  0
 18 19  2  0  0  0
 18 20  1  0  0  0
 18  1  1  0  0  0
 20 22  1  0  0  0
 22 23  1  0  0  0
 23 24  3  0  0  0
 24 25  1  0  0  0
  1  2  1  0  0  0
  1  4  2  0  0  0
  2  3  2  0  0  0
  2 13  1  0  0  0
  3  6  1  0  0  0
 13 14  1  0  0  0
 13 15  2  0  0  0
  4  5  1  0  0  0
  5  6  2  0  0  0
  5  7  1  0  0  0
  7  8  2  0  0  0
  7  9  2  0  0  0
  7 10  1  0  0  0
 20 21  1  0  0  0
 14 16  1  0  0  0
 10 11  1  0  0  0
 10 12  1  0  0  0
M  END
> <minimizedAffinity>
-6.70759

$$$$
5AML_51J_A_266


 25 25  0  0  0  0  0  0  0  0999 V2000
   -2.8451    3.3769   12.3269 C   0  0  0  0  0  0  0  0  0  0  0  0
   -1.4877    3.6483   11.8228 C   0  0  0  0  0  0  0  0  0  0  0  0
   -0.8962    2.6590   11.0557 C   0  0  0  0  0  0  0  0  0  0  0  0
   -3.4157    2.1165   12.0091 C   0  0  0  0  0  0  0  0  0  0  0  0
   -2.7453    1.0952   11.2999 C   0  0  0  0  0  0  0  0  0  0  0  0
   -1.4682    1.4310   10.8027 C   0  0  0  0  0  0  0  0  0  0  0  0
   -3.5086   -0.3843   10.9349 S   0  0  0  0  0  0  0  0  0  0  0  0
   -4.8337   -0.3008   11.5551 O   0  0  0  0  0  0  0  0  0  0  0  0
   -2.6416   -1.4212   11.3795 O   0  0  0  0  0  0  0  0  0  0  0  0
   -3.6467   -0.5104    9.3721 N   0  0  0  0  0  0  0  0  0  0  0  0
   -4.2649    0.2231    9.0251 H   0  0  0  0  0  0  0  0  0  0  0  0
   -4.0371   -1.4231    9.1378 H   0  0  0  0  0  0  0  0  0  0  0  0
   -0.8134    4.9622   11.9946 C   0  0  0  0  0  0  0  0  0  0  0  0
   -0.6760    5.4182   13.1550 O   0  0  0  0  0  0  0  0  0  0  0  0
   -0.3765    5.5447   10.9930 O   0  0  0  0  0  0  0  0  0  0  0  0
   -1.0214    4.9470   13.8876 H   0  0  0  0  0  0  0  0  0  0  0  0
   -3.8759    5.6763   12.5186 O   0  0  0  0  0  0  0  0  0  0  0  0
   -3.7123    4.4556   13.2492 S   0  0  0  0  0  0  0  0  0  0  0  0
   -3.1668    4.5571   14.5358 O   0  0  0  0  0  0  0  0  0  0  0  0
   -5.2093    3.8516   13.4764 N   0  0  0  0  0  0  0  0  0  0  0  0
   -5.1302    2.8354   13.5161 H   0  0  0  0  0  0  0  0  0  0  0  0
   -5.9140    4.2872   14.6748 C   0  0  0  0  0  0  0  0  0  0  0  0
   -6.2438    3.1671   15.5410 C   0  0  0  0  0  0  0  0  0  0  0  0
   -6.5224    2.2715   16.2449 C   0  0  0  0  0  0  0  0  0  0  0  0
   -6.8719    1.1714   17.1236 C   0  0  0  0  0  0  0  0  0  0  0  0
 17 18  2  0  0  0
 18 19  2  0  0  0
 18 20  1  0  0  0
 18  1  1  0  0  0
 20 22  1  0  0  0
 22 23  1  0  0  0
 23 24  3  0  0  0
 24 25  1  0  0  0
  1  2  1  0  0  0
  1  4  2  0  0  0
  2  3  2  0  0  0
  2 13  1  0  0  0
  3  6  1  0  0  0
 13 14  1  0  0  0
 13 15  2  0  0  0
  4  5  1  0  0  0
  5  6  2  0  0  0
  5  7  1  0  0  0
  7  8  2  0  0  0
  7  9  2  0  0  0
  7 10  1  0  0  0
 20 21  1  0  0  0
 14 16  1  0  0  0
 10 11  1  0  0  0
 10 12  1  0  0  0
M  END
> <minimizedAffinity>
-6.58602

$$$$
5AML_51J_A_266


 25 25  0  0  0  0  0  0  0  0999 V2000
   -3.2151    3.0889   12.4513 C   0  0  0  0  0  0  0  0  0  0  0  0
   -3.4551    2.0479   11.4369 C   0  0  0  0  0  0  0  0  0  0  0  0
   -2.5114    1.9256   10.4311 C   0  0  0  0  0  0  0  0  0  0  0  0
   -2.0567    3.8941   12.2937 C   0  0  0  0  0  0  0  0  0  0  0  0
   -1.1641    3.7999   11.2029 C   0  0  0  0  0  0  0  0  0  0  0  0
   -1.4194    2.7545   10.2905 C   0  0  0  0  0  0  0  0  0  0  0  0
    0.2212    4.7873   11.0979 S   0  0  0  0  0  0  0  0  0  0  0  0
    0.0281    5.8353   12.1038 O   0  0  0  0  0  0  0  0  0  0  0  0
    0.3392    5.1964    9.7403 O   0  0  0  0  0  0  0  0  0  0  0  0
    1.4875    3.9216   11.4508 N   0  0  0  0  0  0  0  0  0  0  0  0
    1.4292    3.6138   12.4215 H   0  0  0  0  0  0  0  0  0  0  0  0
    2.3296    4.4826   11.3220 H   0  0  0  0  0  0  0  0  0  0  0  0
   -4.5710    1.0704   11.5356 C   0  0  0  0  0  0  0  0  0  0  0  0
   -5.7135    1.4249   11.1581 O   0  0  0  0  0  0  0  0  0  0  0  0
   -4.3300   -0.0713   11.9504 O   0  0  0  0  0  0  0  0  0  0  0  0
   -5.8552    2.2986   10.8506 H   0  0  0  0  0  0  0  0  0  0  0  0
   -4.2374    2.2183   14.5922 O   0  0  0  0  0  0  0  0  0  0  0  0
   -4.2330    3.3669   13.7369 S   0  0  0  0  0  0  0  0  0  0  0  0
   -5.4787    3.8279   13.2912 O   0  0  0  0  0  0  0  0  0  0  0  0
   -3.6241    4.5948   14.6194 N   0  0  0  0  0  0  0  0  0  0  0  0
   -2.6267    4.6578   14.4152 H   0  0  0  0  0  0  0  0  0  0  0  0
   -4.2053    5.9117   14.3939 C   0  0  0  0  0  0  0  0  0  0  0  0
   -3.2679    6.9750   14.7166 C   0  0  0  0  0  0  0  0  0  0  0  0
   -2.5223    7.8388   14.9868 C   0  0  0  0  0  0  0  0  0  0  0  0
   -1.6093    8.9149   15.3231 C   0  0  0  0  0  0  0  0  0  0  0  0
 17 18  2  0  0  0
 18 19  2  0  0  0
 18 20  1  0  0  0
 18  1  1  0  0  0
 20 22  1  0  0  0
 22 23  1  0  0  0
 23 24  3  0  0  0
 24 25  1  0  0  0
  1  2  1  0  0  0
  1  4  2  0  0  0
  2  3  2  0  0  0
  2 13  1  0  0  0
  3  6  1  0  0  0
 13 14  1  0  0  0
 13 15  2  0  0  0
  4  5  1  0  0  0
  5  6  2  0  0  0
  5  7  1  0  0  0
  7  8  2  0  0  0
  7  9  2  0  0  0
  7 10  1  0  0  0
 20 21  1  0  0  0
 14 16  1  0  0  0
 10 11  1  0  0  0
 10 12  1  0  0  0
M  END
> <minimizedAffinity>
-6.58048

$$$$
