5KAD_OTA_A_401


 22 23  0  0  0  0  0  0  0  0999 V2000
   59.7727   30.9677   11.2027 N   0  0  0  0  0  0  0  0  0  0  0  0
   59.8684   29.5347   11.1201 C   0  0  0  0  0  0  0  0  0  0  0  0
   59.5649   28.7733   12.4023 C   0  0  0  0  0  0  0  0  0  0  0  0
   59.6375   29.5221   13.6147 C   0  0  0  0  0  0  0  0  0  0  0  0
   59.9815   30.9636   13.6428 C   0  0  0  0  0  0  0  0  0  0  0  0
   60.3814   31.5976   12.3710 C   0  0  0  0  0  0  0  0  0  0  0  0
   59.1687   27.2922   12.7089 S   0  0  0  0  0  0  0  0  0  0  0  0
   59.0164   27.2656   14.2549 C   0  0  0  0  0  0  0  0  0  0  0  0
   59.2823   28.5393   14.7854 C   0  0  0  0  0  0  0  0  0  0  0  0
   58.7824   31.2123   11.2000 H   0  0  0  0  0  0  0  0  0  0  0  0
   59.2369   28.8646   16.3029 C   0  0  0  0  0  0  0  0  0  0  0  0
   58.2783   28.3872   16.9752 O   0  0  0  0  0  0  0  0  0  0  0  0
   60.1723   29.5854   16.8561 O   0  0  0  0  0  0  0  0  0  0  0  0
   57.6197   27.8725   16.5517 H   0  0  0  0  0  0  0  0  0  0  0  0
   58.6934   26.2228   15.1538 N   0  0  0  0  0  0  0  0  0  0  0  0
   59.3937   25.0168   15.2695 C   0  0  0  0  0  0  0  0  0  0  0  0
   60.3820   24.7364   14.5595 O   0  0  0  0  0  0  0  0  0  0  0  0
   57.9162   26.3555   15.7433 H   0  0  0  0  0  0  0  0  0  0  0  0
   58.8467   24.0847   16.3221 C   0  0  0  0  0  0  0  0  0  0  0  0
   57.9626   24.5572   17.1255 O   0  0  0  0  0  0  0  0  0  0  0  0
   59.2671   22.9115   16.4158 O   0  0  0  0  0  0  0  0  0  0  0  0
   57.6672   25.4413   17.0297 H   0  0  0  0  0  0  0  0  0  0  0  0
  1  2  1  0  0  0
  1  6  1  0  0  0
  2  3  1  0  0  0
  3  4  2  0  0  0
  3  7  1  0  0  0
  4  5  1  0  0  0
  4  9  1  0  0  0
  5  6  1  0  0  0
  7  8  1  0  0  0
  8  9  2  0  0  0
  8 15  1  0  0  0
  9 11  1  0  0  0
 11 12  1  0  0  0
 11 13  2  0  0  0
 15 16  1  0  0  0
 16 19  1  0  0  0
 16 17  2  0  0  0
 19 20  1  0  0  0
 19 21  2  0  0  0
  1 10  1  0  0  0
 12 14  1  0  0  0
 15 18  1  0  0  0
 20 22  1  0  0  0
M  END
> <minimizedAffinity>
-7.21201

$$$$
5KAD_OTA_A_401


 22 23  0  0  0  0  0  0  0  0999 V2000
   60.9904   33.8802   13.5890 N   0  0  0  0  0  0  0  0  0  0  0  0
   60.5203   33.1630   14.7441 C   0  0  0  0  0  0  0  0  0  0  0  0
   60.1271   31.7116   14.5108 C   0  0  0  0  0  0  0  0  0  0  0  0
   59.8578   31.3386   13.1601 C   0  0  0  0  0  0  0  0  0  0  0  0
   59.9567   32.2963   12.0331 C   0  0  0  0  0  0  0  0  0  0  0  0
   60.2236   33.7116   12.3578 C   0  0  0  0  0  0  0  0  0  0  0  0
   59.9473   30.4779   15.4544 S   0  0  0  0  0  0  0  0  0  0  0  0
   59.5395   29.3324   14.4872 C   0  0  0  0  0  0  0  0  0  0  0  0
   59.4855   29.8142   13.1683 C   0  0  0  0  0  0  0  0  0  0  0  0
   61.9457   33.5749   13.4029 H   0  0  0  0  0  0  0  0  0  0  0  0
   59.0937   28.9371   11.9486 C   0  0  0  0  0  0  0  0  0  0  0  0
   58.7472   29.5315   10.8877 O   0  0  0  0  0  0  0  0  0  0  0  0
   59.1471   27.6362   12.0213 O   0  0  0  0  0  0  0  0  0  0  0  0
   58.7175   30.4678   10.8636 H   0  0  0  0  0  0  0  0  0  0  0  0
   59.2154   27.9750   14.7152 N   0  0  0  0  0  0  0  0  0  0  0  0
   58.6131   27.4773   15.8761 C   0  0  0  0  0  0  0  0  0  0  0  0
   58.3155   28.2018   16.8489 O   0  0  0  0  0  0  0  0  0  0  0  0
   59.4300   27.3306   14.0025 H   0  0  0  0  0  0  0  0  0  0  0  0
   58.3608   25.9902   15.8511 C   0  0  0  0  0  0  0  0  0  0  0  0
   57.8721   25.4576   16.9131 O   0  0  0  0  0  0  0  0  0  0  0  0
   58.6476   25.3115   14.8417 O   0  0  0  0  0  0  0  0  0  0  0  0
   57.6672   25.9932   17.6542 H   0  0  0  0  0  0  0  0  0  0  0  0
  1  2  1  0  0  0
  1  6  1  0  0  0
  2  3  1  0  0  0
  3  4  2  0  0  0
  3  7  1  0  0  0
  4  5  1  0  0  0
  4  9  1  0  0  0
  5  6  1  0  0  0
  7  8  1  0  0  0
  8  9  2  0  0  0
  8 15  1  0  0  0
  9 11  1  0  0  0
 11 12  1  0  0  0
 11 13  2  0  0  0
 15 16  1  0  0  0
 16 19  1  0  0  0
 16 17  2  0  0  0
 19 20  1  0  0  0
 19 21  2  0  0  0
  1 10  1  0  0  0
 12 14  1  0  0  0
 15 18  1  0  0  0
 20 22  1  0  0  0
M  END
> <minimizedAffinity>
-6.11841

$$$$
5KAD_OTA_A_401


 22 23  0  0  0  0  0  0  0  0999 V2000
   58.4014   26.3360   15.2299 N   0  0  0  0  0  0  0  0  0  0  0  0
   58.8052   27.6943   15.4776 C   0  0  0  0  0  0  0  0  0  0  0  0
   59.1748   28.5125   14.2489 C   0  0  0  0  0  0  0  0  0  0  0  0
   59.4929   27.7745   13.0699 C   0  0  0  0  0  0  0  0  0  0  0  0
   59.4641   26.2933   13.0238 C   0  0  0  0  0  0  0  0  0  0  0  0
   59.2160   25.5729   14.2884 C   0  0  0  0  0  0  0  0  0  0  0  0
   59.2859   30.0466   13.9682 S   0  0  0  0  0  0  0  0  0  0  0  0
   59.7083   30.1169   12.4747 C   0  0  0  0  0  0  0  0  0  0  0  0
   59.8296   28.8196   11.9487 C   0  0  0  0  0  0  0  0  0  0  0  0
   57.4482   26.3578   14.8674 H   0  0  0  0  0  0  0  0  0  0  0  0
   60.2530   28.5221   10.4849 C   0  0  0  0  0  0  0  0  0  0  0  0
   61.3977   28.9126   10.1160 O   0  0  0  0  0  0  0  0  0  0  0  0
   59.4573   27.8715    9.6823 O   0  0  0  0  0  0  0  0  0  0  0  0
   61.9490   29.3782   10.7137 H   0  0  0  0  0  0  0  0  0  0  0  0
   59.9913   31.2106   11.6242 N   0  0  0  0  0  0  0  0  0  0  0  0
   61.1038   32.0514   11.7405 C   0  0  0  0  0  0  0  0  0  0  0  0
   61.9608   31.9206   12.6395 O   0  0  0  0  0  0  0  0  0  0  0  0
   59.3569   31.3946   10.8942 H   0  0  0  0  0  0  0  0  0  0  0  0
   61.1733   33.1313   10.6894 C   0  0  0  0  0  0  0  0  0  0  0  0
   61.9144   32.9085    9.6640 O   0  0  0  0  0  0  0  0  0  0  0  0
   60.5529   34.2061   10.8371 O   0  0  0  0  0  0  0  0  0  0  0  0
   62.3672   32.0923    9.5816 H   0  0  0  0  0  0  0  0  0  0  0  0
  1  2  1  0  0  0
  1  6  1  0  0  0
  2  3  1  0  0  0
  3  4  2  0  0  0
  3  7  1  0  0  0
  4  5  1  0  0  0
  4  9  1  0  0  0
  5  6  1  0  0  0
  7  8  1  0  0  0
  8  9  2  0  0  0
  8 15  1  0  0  0
  9 11  1  0  0  0
 11 12  1  0  0  0
 11 13  2  0  0  0
 15 16  1  0  0  0
 16 19  1  0  0  0
 16 17  2  0  0  0
 19 20  1  0  0  0
 19 21  2  0  0  0
  1 10  1  0  0  0
 12 14  1  0  0  0
 15 18  1  0  0  0
 20 22  1  0  0  0
M  END
> <minimizedAffinity>
-5.71336

$$$$
5KAD_OTA_A_401


 22 23  0  0  0  0  0  0  0  0999 V2000
   60.2170   33.7957   12.1579 N   0  0  0  0  0  0  0  0  0  0  0  0
   60.0415   32.5085   11.5401 C   0  0  0  0  0  0  0  0  0  0  0  0
   59.7662   31.3490   12.4864 C   0  0  0  0  0  0  0  0  0  0  0  0
   60.1220   31.5503   13.8534 C   0  0  0  0  0  0  0  0  0  0  0  0
   60.7215   32.8139   14.3441 C   0  0  0  0  0  0  0  0  0  0  0  0
   61.0691   33.8417   13.3429 C   0  0  0  0  0  0  0  0  0  0  0  0
   59.1500   29.9247   12.2961 S   0  0  0  0  0  0  0  0  0  0  0  0
   59.1875   29.3147   13.7246 C   0  0  0  0  0  0  0  0  0  0  0  0
   59.7426   30.2383   14.6265 C   0  0  0  0  0  0  0  0  0  0  0  0
   59.2946   34.1384   12.4266 H   0  0  0  0  0  0  0  0  0  0  0  0
   59.9445   29.9480   16.1383 C   0  0  0  0  0  0  0  0  0  0  0  0
   60.7739   30.6666   16.7664 O   0  0  0  0  0  0  0  0  0  0  0  0
   59.2600   29.0100   16.7318 O   0  0  0  0  0  0  0  0  0  0  0  0
   61.2523   31.3337   16.3146 H   0  0  0  0  0  0  0  0  0  0  0  0
   58.7951   28.0504   14.2218 N   0  0  0  0  0  0  0  0  0  0  0  0
   59.1913   26.8193   13.6875 C   0  0  0  0  0  0  0  0  0  0  0  0
   59.9319   26.7219   12.6867 O   0  0  0  0  0  0  0  0  0  0  0  0
   58.1972   28.0352   15.0038 H   0  0  0  0  0  0  0  0  0  0  0  0
   58.6411   25.6223   14.4225 C   0  0  0  0  0  0  0  0  0  0  0  0
   58.1733   25.8195   15.6027 O   0  0  0  0  0  0  0  0  0  0  0  0
   58.6721   24.4856   13.9039 O   0  0  0  0  0  0  0  0  0  0  0  0
   58.1636   26.6838   15.9644 H   0  0  0  0  0  0  0  0  0  0  0  0
  1  2  1  0  0  0
  1  6  1  0  0  0
  2  3  1  0  0  0
  3  4  2  0  0  0
  3  7  1  0  0  0
  4  5  1  0  0  0
  4  9  1  0  0  0
  5  6  1  0  0  0
  7  8  1  0  0  0
  8  9  2  0  0  0
  8 15  1  0  0  0
  9 11  1  0  0  0
 11 12  1  0  0  0
 11 13  2  0  0  0
 15 16  1  0  0  0
 16 19  1  0  0  0
 16 17  2  0  0  0
 19 20  1  0  0  0
 19 21  2  0  0  0
  1 10  1  0  0  0
 12 14  1  0  0  0
 15 18  1  0  0  0
 20 22  1  0  0  0
M  END
> <minimizedAffinity>
-5.47702

$$$$
5KAD_OTA_A_401


 22 23  0  0  0  0  0  0  0  0999 V2000
   58.2051   25.1930   15.3095 N   0  0  0  0  0  0  0  0  0  0  0  0
   58.6641   26.3141   16.0854 C   0  0  0  0  0  0  0  0  0  0  0  0
   58.9932   27.5755   15.3004 C   0  0  0  0  0  0  0  0  0  0  0  0
   59.2248   27.4080   13.9024 C   0  0  0  0  0  0  0  0  0  0  0  0
   59.1471   26.0876   13.2334 C   0  0  0  0  0  0  0  0  0  0  0  0
   58.9441   24.8988   14.0849 C   0  0  0  0  0  0  0  0  0  0  0  0
   59.1374   29.0824   15.6917 S   0  0  0  0  0  0  0  0  0  0  0  0
   59.4818   29.7795   14.3465 C   0  0  0  0  0  0  0  0  0  0  0  0
   59.5341   28.8291   13.3129 C   0  0  0  0  0  0  0  0  0  0  0  0
   57.2352   25.3725   15.0501 H   0  0  0  0  0  0  0  0  0  0  0  0
   59.8694   29.1809   11.8383 C   0  0  0  0  0  0  0  0  0  0  0  0
   59.1976   30.1005   11.2889 O   0  0  0  0  0  0  0  0  0  0  0  0
   60.8272   28.5593   11.2084 O   0  0  0  0  0  0  0  0  0  0  0  0
   58.5147   30.5304   11.7652 H   0  0  0  0  0  0  0  0  0  0  0  0
   59.7533   31.1296   14.0255 N   0  0  0  0  0  0  0  0  0  0  0  0
   60.9823   31.7699   14.2205 C   0  0  0  0  0  0  0  0  0  0  0  0
   61.9714   31.1983   14.7250 O   0  0  0  0  0  0  0  0  0  0  0  0
   59.0216   31.6599   13.6349 H   0  0  0  0  0  0  0  0  0  0  0  0
   61.0049   33.2105   13.7734 C   0  0  0  0  0  0  0  0  0  0  0  0
   59.8725   33.7961   13.6150 O   0  0  0  0  0  0  0  0  0  0  0  0
   62.0880   33.7896   13.5418 O   0  0  0  0  0  0  0  0  0  0  0  0
   59.0772   33.3352   13.7970 H   0  0  0  0  0  0  0  0  0  0  0  0
  1  2  1  0  0  0
  1  6  1  0  0  0
  2  3  1  0  0  0
  3  4  2  0  0  0
  3  7  1  0  0  0
  4  5  1  0  0  0
  4  9  1  0  0  0
  5  6  1  0  0  0
  7  8  1  0  0  0
  8  9  2  0  0  0
  8 15  1  0  0  0
  9 11  1  0  0  0
 11 12  1  0  0  0
 11 13  2  0  0  0
 15 16  1  0  0  0
 16 19  1  0  0  0
 16 17  2  0  0  0
 19 20  1  0  0  0
 19 21  2  0  0  0
  1 10  1  0  0  0
 12 14  1  0  0  0
 15 18  1  0  0  0
 20 22  1  0  0  0
M  END
> <minimizedAffinity>
-5.19884

$$$$
5KAD_OTA_A_401


 22 23  0  0  0  0  0  0  0  0999 V2000
   58.8473   24.6918   14.8443 N   0  0  0  0  0  0  0  0  0  0  0  0
   58.7826   25.2202   13.5079 C   0  0  0  0  0  0  0  0  0  0  0  0
   59.1344   26.6931   13.3577 C   0  0  0  0  0  0  0  0  0  0  0  0
   59.0739   27.4820   14.5452 C   0  0  0  0  0  0  0  0  0  0  0  0
   58.6976   26.9145   15.8617 C   0  0  0  0  0  0  0  0  0  0  0  0
   58.2526   25.5074   15.8996 C   0  0  0  0  0  0  0  0  0  0  0  0
   59.5719   27.5794   12.1462 S   0  0  0  0  0  0  0  0  0  0  0  0
   59.7620   28.9887   12.7721 C   0  0  0  0  0  0  0  0  0  0  0  0
   59.4797   28.9450   14.1478 C   0  0  0  0  0  0  0  0  0  0  0  0
   59.8313   24.5557   15.0759 H   0  0  0  0  0  0  0  0  0  0  0  0
   59.5542   30.1843   15.0801 C   0  0  0  0  0  0  0  0  0  0  0  0
   59.5058   29.9820   16.3273 O   0  0  0  0  0  0  0  0  0  0  0  0
   59.6857   31.3827   14.5828 O   0  0  0  0  0  0  0  0  0  0  0  0
   59.4109   29.1102   16.6572 H   0  0  0  0  0  0  0  0  0  0  0  0
   60.1305   30.2310   12.2059 N   0  0  0  0  0  0  0  0  0  0  0  0
   61.4188   30.5665   11.7749 C   0  0  0  0  0  0  0  0  0  0  0  0
   62.3894   29.7864   11.8696 O   0  0  0  0  0  0  0  0  0  0  0  0
   59.4265   30.9122   12.1075 H   0  0  0  0  0  0  0  0  0  0  0  0
   61.5326   31.9533   11.1922 C   0  0  0  0  0  0  0  0  0  0  0  0
   60.4405   32.5996   10.9920 O   0  0  0  0  0  0  0  0  0  0  0  0
   62.6486   32.4302   10.8937 O   0  0  0  0  0  0  0  0  0  0  0  0
   59.6189   32.2152   11.2265 H   0  0  0  0  0  0  0  0  0  0  0  0
  1  2  1  0  0  0
  1  6  1  0  0  0
  2  3  1  0  0  0
  3  4  2  0  0  0
  3  7  1  0  0  0
  4  5  1  0  0  0
  4  9  1  0  0  0
  5  6  1  0  0  0
  7  8  1  0  0  0
  8  9  2  0  0  0
  8 15  1  0  0  0
  9 11  1  0  0  0
 11 12  1  0  0  0
 11 13  2  0  0  0
 15 16  1  0  0  0
 16 19  1  0  0  0
 16 17  2  0  0  0
 19 20  1  0  0  0
 19 21  2  0  0  0
  1 10  1  0  0  0
 12 14  1  0  0  0
 15 18  1  0  0  0
 20 22  1  0  0  0
M  END
> <minimizedAffinity>
-5.04623

$$$$
5KAD_OTA_A_401


 22 23  0  0  0  0  0  0  0  0999 V2000
   59.2623   26.2628   14.4496 N   0  0  0  0  0  0  0  0  0  0  0  0
   59.1402   26.7025   13.0853 C   0  0  0  0  0  0  0  0  0  0  0  0
   59.4802   28.1628   12.8246 C   0  0  0  0  0  0  0  0  0  0  0  0
   59.4663   29.0276   13.9594 C   0  0  0  0  0  0  0  0  0  0  0  0
   59.1470   28.5472   15.3248 C   0  0  0  0  0  0  0  0  0  0  0  0
   58.7091   27.1452   15.4731 C   0  0  0  0  0  0  0  0  0  0  0  0
   59.8638   28.9681   11.5405 S   0  0  0  0  0  0  0  0  0  0  0  0
   60.0747   30.4156   12.0645 C   0  0  0  0  0  0  0  0  0  0  0  0
   59.8500   30.4618   13.4507 C   0  0  0  0  0  0  0  0  0  0  0  0
   60.2556   26.1430   14.6483 H   0  0  0  0  0  0  0  0  0  0  0  0
   59.9587   31.7595   14.2960 C   0  0  0  0  0  0  0  0  0  0  0  0
   60.3406   31.6459   15.4960 O   0  0  0  0  0  0  0  0  0  0  0  0
   59.6861   32.9206   13.7686 O   0  0  0  0  0  0  0  0  0  0  0  0
   60.5298   30.7989   15.8492 H   0  0  0  0  0  0  0  0  0  0  0  0
   60.4149   31.6185   11.4035 N   0  0  0  0  0  0  0  0  0  0  0  0
   61.7189   32.0311   11.1077 C   0  0  0  0  0  0  0  0  0  0  0  0
   62.7279   31.3669   11.4243 O   0  0  0  0  0  0  0  0  0  0  0  0
   59.6777   32.2111   11.1303 H   0  0  0  0  0  0  0  0  0  0  0  0
   61.7981   33.3497   10.3791 C   0  0  0  0  0  0  0  0  0  0  0  0
   61.7963   33.3142    9.0949 O   0  0  0  0  0  0  0  0  0  0  0  0
   61.8909   34.4235   11.0117 O   0  0  0  0  0  0  0  0  0  0  0  0
   61.7253   32.4931    8.6490 H   0  0  0  0  0  0  0  0  0  0  0  0
  1  2  1  0  0  0
  1  6  1  0  0  0
  2  3  1  0  0  0
  3  4  2  0  0  0
  3  7  1  0  0  0
  4  5  1  0  0  0
  4  9  1  0  0  0
  5  6  1  0  0  0
  7  8  1  0  0  0
  8  9  2  0  0  0
  8 15  1  0  0  0
  9 11  1  0  0  0
 11 12  1  0  0  0
 11 13  2  0  0  0
 15 16  1  0  0  0
 16 19  1  0  0  0
 16 17  2  0  0  0
 19 20  1  0  0  0
 19 21  2  0  0  0
  1 10  1  0  0  0
 12 14  1  0  0  0
 15 18  1  0  0  0
 20 22  1  0  0  0
M  END
> <minimizedAffinity>
-5.04521

$$$$
5KAD_OTA_A_401


 22 23  0  0  0  0  0  0  0  0999 V2000
   59.1638   26.5823   14.3994 N   0  0  0  0  0  0  0  0  0  0  0  0
   59.1295   27.3068   13.1571 C   0  0  0  0  0  0  0  0  0  0  0  0
   59.5534   28.7666   13.2271 C   0  0  0  0  0  0  0  0  0  0  0  0
   59.5276   29.3714   14.5192 C   0  0  0  0  0  0  0  0  0  0  0  0
   59.1195   28.6328   15.7378 C   0  0  0  0  0  0  0  0  0  0  0  0
   58.6062   27.2592   15.5669 C   0  0  0  0  0  0  0  0  0  0  0  0
   60.0377   29.8013   12.1596 S   0  0  0  0  0  0  0  0  0  0  0  0
   60.2944   31.0905   12.9881 C   0  0  0  0  0  0  0  0  0  0  0  0
   60.0058   30.8557   14.3430 C   0  0  0  0  0  0  0  0  0  0  0  0
   60.1392   26.3652   14.6042 H   0  0  0  0  0  0  0  0  0  0  0  0
   60.1377   31.9368   15.4495 C   0  0  0  0  0  0  0  0  0  0  0  0
   60.5841   31.5712   16.5745 O   0  0  0  0  0  0  0  0  0  0  0  0
   59.8186   33.1778   15.2071 O   0  0  0  0  0  0  0  0  0  0  0  0
   60.8055   30.6726   16.7212 H   0  0  0  0  0  0  0  0  0  0  0  0
   60.7251   32.3838   12.6122 N   0  0  0  0  0  0  0  0  0  0  0  0
   59.9733   33.2937   11.8605 C   0  0  0  0  0  0  0  0  0  0  0  0
   58.8316   33.0335   11.4264 O   0  0  0  0  0  0  0  0  0  0  0  0
   61.6228   32.6659   12.9017 H   0  0  0  0  0  0  0  0  0  0  0  0
   60.6649   34.6119   11.6163 C   0  0  0  0  0  0  0  0  0  0  0  0
   61.0481   35.2760   12.6471 O   0  0  0  0  0  0  0  0  0  0  0  0
   60.8258   35.0422   10.4540 O   0  0  0  0  0  0  0  0  0  0  0  0
   60.9134   34.9267   13.5061 H   0  0  0  0  0  0  0  0  0  0  0  0
  1  2  1  0  0  0
  1  6  1  0  0  0
  2  3  1  0  0  0
  3  4  2  0  0  0
  3  7  1  0  0  0
  4  5  1  0  0  0
  4  9  1  0  0  0
  5  6  1  0  0  0
  7  8  1  0  0  0
  8  9  2  0  0  0
  8 15  1  0  0  0
  9 11  1  0  0  0
 11 12  1  0  0  0
 11 13  2  0  0  0
 15 16  1  0  0  0
 16 19  1  0  0  0
 16 17  2  0  0  0
 19 20  1  0  0  0
 19 21  2  0  0  0
  1 10  1  0  0  0
 12 14  1  0  0  0
 15 18  1  0  0  0
 20 22  1  0  0  0
M  END
> <minimizedAffinity>
-4.88562

$$$$
5KAD_OTA_A_401


 22 23  0  0  0  0  0  0  0  0999 V2000
   59.7924   27.8649   10.9103 N   0  0  0  0  0  0  0  0  0  0  0  0
   59.5769   29.2848   10.9935 C   0  0  0  0  0  0  0  0  0  0  0  0
   59.6756   29.8917   12.3855 C   0  0  0  0  0  0  0  0  0  0  0  0
   59.5452   28.9865   13.4807 C   0  0  0  0  0  0  0  0  0  0  0  0
   59.3316   27.5319   13.2925 C   0  0  0  0  0  0  0  0  0  0  0  0
   59.1248   27.0421   11.9152 C   0  0  0  0  0  0  0  0  0  0  0  0
   59.9026   31.3453   12.9146 S   0  0  0  0  0  0  0  0  0  0  0  0
   59.8904   31.1798   14.4594 C   0  0  0  0  0  0  0  0  0  0  0  0
   59.6868   29.8308   14.7960 C   0  0  0  0  0  0  0  0  0  0  0  0
   60.7955   27.6989   10.9912 H   0  0  0  0  0  0  0  0  0  0  0  0
   59.6034   29.3130   16.2573 C   0  0  0  0  0  0  0  0  0  0  0  0
   58.6122   28.5915   16.5667 O   0  0  0  0  0  0  0  0  0  0  0  0
   60.5403   29.5993   17.1180 O   0  0  0  0  0  0  0  0  0  0  0  0
   57.9534   28.4017   15.9280 H   0  0  0  0  0  0  0  0  0  0  0  0
   60.0229   32.1167   15.5102 N   0  0  0  0  0  0  0  0  0  0  0  0
   61.2371   32.6290   15.9809 C   0  0  0  0  0  0  0  0  0  0  0  0
   62.3437   32.2837   15.5164 O   0  0  0  0  0  0  0  0  0  0  0  0
   59.1976   32.4328   15.9440 H   0  0  0  0  0  0  0  0  0  0  0  0
   61.0916   33.6294   17.1007 C   0  0  0  0  0  0  0  0  0  0  0  0
   61.4668   34.8354   16.8658 O   0  0  0  0  0  0  0  0  0  0  0  0
   60.6497   33.2787   18.2159 O   0  0  0  0  0  0  0  0  0  0  0  0
   61.7939   35.0678   16.0190 H   0  0  0  0  0  0  0  0  0  0  0  0
  1  2  1  0  0  0
  1  6  1  0  0  0
  2  3  1  0  0  0
  3  4  2  0  0  0
  3  7  1  0  0  0
  4  5  1  0  0  0
  4  9  1  0  0  0
  5  6  1  0  0  0
  7  8  1  0  0  0
  8  9  2  0  0  0
  8 15  1  0  0  0
  9 11  1  0  0  0
 11 12  1  0  0  0
 11 13  2  0  0  0
 15 16  1  0  0  0
 16 19  1  0  0  0
 16 17  2  0  0  0
 19 20  1  0  0  0
 19 21  2  0  0  0
  1 10  1  0  0  0
 12 14  1  0  0  0
 15 18  1  0  0  0
 20 22  1  0  0  0
M  END
> <minimizedAffinity>
-4.83496

$$$$
5KAD_OTA_A_401


 22 23  0  0  0  0  0  0  0  0999 V2000
   60.6902   34.6399   10.9172 N   0  0  0  0  0  0  0  0  0  0  0  0
   60.7900   33.2060   10.8586 C   0  0  0  0  0  0  0  0  0  0  0  0
   60.4960   32.4656   12.1553 C   0  0  0  0  0  0  0  0  0  0  0  0
   60.5731   33.2352   13.3543 C   0  0  0  0  0  0  0  0  0  0  0  0
   60.9128   34.6780   13.3559 C   0  0  0  0  0  0  0  0  0  0  0  0
   61.3035   35.2915   12.0712 C   0  0  0  0  0  0  0  0  0  0  0  0
   60.1062   30.9888   12.4894 S   0  0  0  0  0  0  0  0  0  0  0  0
   59.9626   30.9882   14.0365 C   0  0  0  0  0  0  0  0  0  0  0  0
   60.2276   32.2715   14.5436 C   0  0  0  0  0  0  0  0  0  0  0  0
   59.6992   34.8814   10.9160 H   0  0  0  0  0  0  0  0  0  0  0  0
   60.1896   32.6225   16.0555 C   0  0  0  0  0  0  0  0  0  0  0  0
   60.7265   31.8072   16.8591 O   0  0  0  0  0  0  0  0  0  0  0  0
   59.6418   33.7324   16.4663 O   0  0  0  0  0  0  0  0  0  0  0  0
   61.1129   31.0170   16.5364 H   0  0  0  0  0  0  0  0  0  0  0  0
   59.6479   29.9599   14.9547 N   0  0  0  0  0  0  0  0  0  0  0  0
   59.0412   28.7438   14.6216 C   0  0  0  0  0  0  0  0  0  0  0  0
   58.6971   28.4552   13.4563 O   0  0  0  0  0  0  0  0  0  0  0  0
   59.8730   30.1113   15.9012 H   0  0  0  0  0  0  0  0  0  0  0  0
   58.8347   27.8162   15.7932 C   0  0  0  0  0  0  0  0  0  0  0  0
   59.1300   26.5775   15.6231 O   0  0  0  0  0  0  0  0  0  0  0  0
   58.3671   28.2436   16.8705 O   0  0  0  0  0  0  0  0  0  0  0  0
   59.4791   26.2873   14.8035 H   0  0  0  0  0  0  0  0  0  0  0  0
  1  2  1  0  0  0
  1  6  1  0  0  0
  2  3  1  0  0  0
  3  4  2  0  0  0
  3  7  1  0  0  0
  4  5  1  0  0  0
  4  9  1  0  0  0
  5  6  1  0  0  0
  7  8  1  0  0  0
  8  9  2  0  0  0
  8 15  1  0  0  0
  9 11  1  0  0  0
 11 12  1  0  0  0
 11 13  2  0  0  0
 15 16  1  0  0  0
 16 19  1  0  0  0
 16 17  2  0  0  0
 19 20  1  0  0  0
 19 21  2  0  0  0
  1 10  1  0  0  0
 12 14  1  0  0  0
 15 18  1  0  0  0
 20 22  1  0  0  0
M  END
> <minimizedAffinity>
-4.73912

$$$$
