1VSO_AT1_A_258


 26 26  0  0  0  0  0  0  0  0999 V2000
   39.5553    6.2651    9.5788 O   0  0  0  0  0  0  0  0  0  0  0  0
   38.8370    5.0495    9.5043 N   0  0  0  0  0  0  0  0  0  0  0  0
   38.6908    4.8451    8.2163 C   0  0  0  0  0  0  0  0  0  0  0  0
   39.2796    5.8652    7.4003 C   0  0  0  0  0  0  0  0  0  0  0  0
   39.8080    6.7411    8.3280 C   0  0  0  0  0  0  0  0  0  0  0  0
   40.5710    8.0699    8.3455 C   0  0  0  0  0  0  0  0  0  0  0  0
   39.6563    9.1225    9.0165 C   0  0  0  0  0  0  0  0  0  0  0  0
   41.8518    7.9358    9.1634 C   0  0  0  0  0  0  0  0  0  0  0  0
   40.9269    8.5859    6.9576 C   0  0  0  0  0  0  0  0  0  0  0  0
   39.2197    5.8210    5.9027 C   0  0  0  0  0  0  0  0  0  0  0  0
   41.6640    5.3415    5.4220 N   0  0  0  0  0  0  0  0  0  0  0  0
   40.2147    4.8685    5.2343 C   0  0  0  0  0  0  0  0  0  0  0  0
   41.8660    5.4315    6.4177 H   0  0  0  0  0  0  0  0  0  0  0  0
   41.7882    6.2458    4.9668 H   0  0  0  0  0  0  0  0  0  0  0  0
   40.8860    5.0318    2.8986 O   0  0  0  0  0  0  0  0  0  0  0  0
   39.9337    4.7391    3.6846 C   0  0  0  0  0  0  0  0  0  0  0  0
   38.7944    4.3528    3.3345 O   0  0  0  0  0  0  0  0  0  0  0  0
   41.7097    5.3137    3.2452 H   0  0  0  0  0  0  0  0  0  0  0  0
   38.0439    3.7939    7.6771 O   0  0  0  0  0  0  0  0  0  0  0  0
   37.0259    3.1325    8.4988 C   0  0  0  0  0  0  0  0  0  0  0  0
   37.8170    1.7674    9.3872 P   0  0  0  0  0  0  0  0  0  0  0  0
   39.0904    1.4116    8.7079 O   0  0  0  0  0  0  0  0  0  0  0  0
   37.9607    2.2820   10.7936 O   0  0  0  0  0  0  0  0  0  0  0  0
   36.7812    0.5938    9.3859 O   0  0  0  0  0  0  0  0  0  0  0  0
   38.6009    3.0106   10.8075 H   0  0  0  0  0  0  0  0  0  0  0  0
   36.6798    0.2531    8.4834 H   0  0  0  0  0  0  0  0  0  0  0  0
 11 12  1  0  0  0
 10 12  1  0  0  0
 10  4  1  0  0  0
 15 16  1  0  0  0
 12 16  1  0  0  0
 16 17  2  0  0  0
  1  2  1  0  0  0
  1  5  1  0  0  0
 19 20  1  0  0  0
 19  3  1  0  0  0
  2  3  2  0  0  0
  6  5  1  0  0  0
  6  7  1  0  0  0
  6  8  1  0  0  0
  6  9  1  0  0  0
 20 21  1  0  0  0
  3  4  1  0  0  0
  4  5  2  0  0  0
 21 22  2  0  0  0
 21 23  1  0  0  0
 21 24  1  0  0  0
 11 13  1  0  0  0
 11 14  1  0  0  0
 15 18  1  0  0  0
 23 25  1  0  0  0
 24 26  1  0  0  0
M  END
> <minimizedAffinity>
-7.48868

$$$$
1VSO_AT1_A_258


 26 26  0  0  0  0  0  0  0  0999 V2000
   38.0007    4.2043    8.6926 O   0  0  0  0  0  0  0  0  0  0  0  0
   38.8273    4.0342    7.5581 N   0  0  0  0  0  0  0  0  0  0  0  0
   39.3114    5.2333    7.3349 C   0  0  0  0  0  0  0  0  0  0  0  0
   38.8570    6.2214    8.2679 C   0  0  0  0  0  0  0  0  0  0  0  0
   38.0224    5.5033    9.1016 C   0  0  0  0  0  0  0  0  0  0  0  0
   37.1284    5.7529   10.3209 C   0  0  0  0  0  0  0  0  0  0  0  0
   36.3402    4.4494   10.5941 C   0  0  0  0  0  0  0  0  0  0  0  0
   37.9787    6.0811   11.5442 C   0  0  0  0  0  0  0  0  0  0  0  0
   36.1145    6.8701   10.1139 C   0  0  0  0  0  0  0  0  0  0  0  0
   39.2902    7.6545    8.1851 C   0  0  0  0  0  0  0  0  0  0  0  0
   40.0327    9.4981    9.7617 N   0  0  0  0  0  0  0  0  0  0  0  0
   40.3250    8.0881    9.2269 C   0  0  0  0  0  0  0  0  0  0  0  0
   39.0926    9.5239   10.1566 H   0  0  0  0  0  0  0  0  0  0  0  0
   40.0995   10.1718    8.9987 H   0  0  0  0  0  0  0  0  0  0  0  0
   41.9162    7.6608    7.4330 O   0  0  0  0  0  0  0  0  0  0  0  0
   41.7854    8.0813    8.6231 C   0  0  0  0  0  0  0  0  0  0  0  0
   42.7147    8.4945    9.3548 O   0  0  0  0  0  0  0  0  0  0  0  0
   41.1657    7.3685    6.9542 H   0  0  0  0  0  0  0  0  0  0  0  0
   40.1486    5.5449    6.3268 O   0  0  0  0  0  0  0  0  0  0  0  0
   39.5533    5.8382    5.0197 C   0  0  0  0  0  0  0  0  0  0  0  0
   39.8613    4.4259    3.9294 P   0  0  0  0  0  0  0  0  0  0  0  0
   38.6248    4.1169    3.1644 O   0  0  0  0  0  0  0  0  0  0  0  0
   41.0401    4.8558    3.0994 O   0  0  0  0  0  0  0  0  0  0  0  0
   40.3066    3.2499    4.8617 O   0  0  0  0  0  0  0  0  0  0  0  0
   40.7765    5.5851    2.5167 H   0  0  0  0  0  0  0  0  0  0  0  0
   39.5541    2.9635    5.4026 H   0  0  0  0  0  0  0  0  0  0  0  0
 11 12  1  0  0  0
 10 12  1  0  0  0
 10  4  1  0  0  0
 15 16  1  0  0  0
 12 16  1  0  0  0
 16 17  2  0  0  0
  1  2  1  0  0  0
  1  5  1  0  0  0
 19 20  1  0  0  0
 19  3  1  0  0  0
  2  3  2  0  0  0
  6  5  1  0  0  0
  6  7  1  0  0  0
  6  8  1  0  0  0
  6  9  1  0  0  0
 20 21  1  0  0  0
  3  4  1  0  0  0
  4  5  2  0  0  0
 21 22  2  0  0  0
 21 23  1  0  0  0
 21 24  1  0  0  0
 11 13  1  0  0  0
 11 14  1  0  0  0
 15 18  1  0  0  0
 23 25  1  0  0  0
 24 26  1  0  0  0
M  END
> <minimizedAffinity>
-7.24962

$$$$
1VSO_AT1_A_258


 26 26  0  0  0  0  0  0  0  0999 V2000
   36.3420    4.9719    7.3764 O   0  0  0  0  0  0  0  0  0  0  0  0
   37.3112    5.2996    8.3524 N   0  0  0  0  0  0  0  0  0  0  0  0
   38.3704    5.6282    7.6508 C   0  0  0  0  0  0  0  0  0  0  0  0
   38.1722    5.5442    6.2341 C   0  0  0  0  0  0  0  0  0  0  0  0
   36.8637    5.1160    6.1266 C   0  0  0  0  0  0  0  0  0  0  0  0
   35.8618    4.7569    5.0241 C   0  0  0  0  0  0  0  0  0  0  0  0
   34.7948    5.8771    4.9827 C   0  0  0  0  0  0  0  0  0  0  0  0
   36.5625    4.6923    3.6706 C   0  0  0  0  0  0  0  0  0  0  0  0
   35.1377    3.4391    5.2652 C   0  0  0  0  0  0  0  0  0  0  0  0
   39.2602    5.8739    5.2564 C   0  0  0  0  0  0  0  0  0  0  0  0
   41.7261    5.2786    5.2871 N   0  0  0  0  0  0  0  0  0  0  0  0
   40.2986    4.7709    5.0343 C   0  0  0  0  0  0  0  0  0  0  0  0
   41.7924    5.6489    6.2352 H   0  0  0  0  0  0  0  0  0  0  0  0
   41.9483    6.0157    4.6179 H   0  0  0  0  0  0  0  0  0  0  0  0
   39.6992    3.0624    3.4051 O   0  0  0  0  0  0  0  0  0  0  0  0
   40.2290    4.2050    3.5604 C   0  0  0  0  0  0  0  0  0  0  0  0
   40.6954    4.9210    2.6442 O   0  0  0  0  0  0  0  0  0  0  0  0
   39.3741    2.5918    4.1473 H   0  0  0  0  0  0  0  0  0  0  0  0
   39.5519    6.0019    8.1786 O   0  0  0  0  0  0  0  0  0  0  0  0
   39.6064    7.2953    8.8665 C   0  0  0  0  0  0  0  0  0  0  0  0
   41.2643    7.9866    8.6384 P   0  0  0  0  0  0  0  0  0  0  0  0
   41.1908    9.4699    8.7000 O   0  0  0  0  0  0  0  0  0  0  0  0
   42.0823    7.3379    9.7217 O   0  0  0  0  0  0  0  0  0  0  0  0
   41.7635    7.4619    7.2507 O   0  0  0  0  0  0  0  0  0  0  0  0
   41.7820    7.6555   10.5876 H   0  0  0  0  0  0  0  0  0  0  0  0
   41.2430    7.8734    6.5431 H   0  0  0  0  0  0  0  0  0  0  0  0
 11 12  1  0  0  0
 10 12  1  0  0  0
 10  4  1  0  0  0
 15 16  1  0  0  0
 12 16  1  0  0  0
 16 17  2  0  0  0
  1  2  1  0  0  0
  1  5  1  0  0  0
 19 20  1  0  0  0
 19  3  1  0  0  0
  2  3  2  0  0  0
  6  5  1  0  0  0
  6  7  1  0  0  0
  6  8  1  0  0  0
  6  9  1  0  0  0
 20 21  1  0  0  0
  3  4  1  0  0  0
  4  5  2  0  0  0
 21 22  2  0  0  0
 21 23  1  0  0  0
 21 24  1  0  0  0
 11 13  1  0  0  0
 11 14  1  0  0  0
 15 18  1  0  0  0
 23 25  1  0  0  0
 24 26  1  0  0  0
M  END
> <minimizedAffinity>
-7.14470

$$$$
1VSO_AT1_A_258


 26 26  0  0  0  0  0  0  0  0999 V2000
   37.3422    1.8117    8.4785 O   0  0  0  0  0  0  0  0  0  0  0  0
   38.2998    2.0874    7.4755 N   0  0  0  0  0  0  0  0  0  0  0  0
   38.5215    3.3754    7.5930 C   0  0  0  0  0  0  0  0  0  0  0  0
   37.7608    3.9985    8.6353 C   0  0  0  0  0  0  0  0  0  0  0  0
   37.0273    2.9506    9.1558 C   0  0  0  0  0  0  0  0  0  0  0  0
   35.9774    2.7167   10.2473 C   0  0  0  0  0  0  0  0  0  0  0  0
   36.6374    3.0517   11.6065 C   0  0  0  0  0  0  0  0  0  0  0  0
   34.7806    3.6393   10.0390 C   0  0  0  0  0  0  0  0  0  0  0  0
   35.4820    1.2783   10.3173 C   0  0  0  0  0  0  0  0  0  0  0  0
   37.8656    5.4649    8.9307 C   0  0  0  0  0  0  0  0  0  0  0  0
   38.5116    6.7212   11.0378 N   0  0  0  0  0  0  0  0  0  0  0  0
   39.0112    5.8656    9.8640 C   0  0  0  0  0  0  0  0  0  0  0  0
   37.7931    6.2096   11.5499 H   0  0  0  0  0  0  0  0  0  0  0  0
   38.1194    7.5925   10.6807 H   0  0  0  0  0  0  0  0  0  0  0  0
   40.1810    6.5317    7.8341 O   0  0  0  0  0  0  0  0  0  0  0  0
   40.1209    6.6844    9.0925 C   0  0  0  0  0  0  0  0  0  0  0  0
   40.8632    7.4320    9.7706 O   0  0  0  0  0  0  0  0  0  0  0  0
   39.5854    5.9503    7.4038 H   0  0  0  0  0  0  0  0  0  0  0  0
   39.3675    4.0800    6.8172 O   0  0  0  0  0  0  0  0  0  0  0  0
   39.7886    3.4729    5.5511 C   0  0  0  0  0  0  0  0  0  0  0  0
   39.8122    4.7669    4.2847 P   0  0  0  0  0  0  0  0  0  0  0  0
   38.8813    4.3966    3.1866 O   0  0  0  0  0  0  0  0  0  0  0  0
   39.4535    6.0197    5.0365 O   0  0  0  0  0  0  0  0  0  0  0  0
   41.2989    4.8766    3.8075 O   0  0  0  0  0  0  0  0  0  0  0  0
   38.5332    5.9636    5.3378 H   0  0  0  0  0  0  0  0  0  0  0  0
   41.5424    4.0736    3.3208 H   0  0  0  0  0  0  0  0  0  0  0  0
 11 12  1  0  0  0
 10 12  1  0  0  0
 10  4  1  0  0  0
 15 16  1  0  0  0
 12 16  1  0  0  0
 16 17  2  0  0  0
  1  2  1  0  0  0
  1  5  1  0  0  0
 19 20  1  0  0  0
 19  3  1  0  0  0
  2  3  2  0  0  0
  6  5  1  0  0  0
  6  7  1  0  0  0
  6  8  1  0  0  0
  6  9  1  0  0  0
 20 21  1  0  0  0
  3  4  1  0  0  0
  4  5  2  0  0  0
 21 22  2  0  0  0
 21 23  1  0  0  0
 21 24  1  0  0  0
 11 13  1  0  0  0
 11 14  1  0  0  0
 15 18  1  0  0  0
 23 25  1  0  0  0
 24 26  1  0  0  0
M  END
> <minimizedAffinity>
-7.01954

$$$$
1VSO_AT1_A_258


 26 26  0  0  0  0  0  0  0  0999 V2000
   38.9980    3.3488    6.7032 O   0  0  0  0  0  0  0  0  0  0  0  0
   38.9863    3.6761    8.0787 N   0  0  0  0  0  0  0  0  0  0  0  0
   39.0651    4.9859    8.0944 C   0  0  0  0  0  0  0  0  0  0  0  0
   39.1272    5.5754    6.7899 C   0  0  0  0  0  0  0  0  0  0  0  0
   39.0860    4.4800    5.9499 C   0  0  0  0  0  0  0  0  0  0  0  0
   39.1205    4.1862    4.4463 C   0  0  0  0  0  0  0  0  0  0  0  0
   40.1989    5.1016    3.8184 C   0  0  0  0  0  0  0  0  0  0  0  0
   39.5035    2.7305    4.1986 C   0  0  0  0  0  0  0  0  0  0  0  0
   37.8028    4.4742    3.7393 C   0  0  0  0  0  0  0  0  0  0  0  0
   39.2248    7.0581    6.5892 C   0  0  0  0  0  0  0  0  0  0  0  0
   41.6925    6.5996    6.2208 N   0  0  0  0  0  0  0  0  0  0  0  0
   40.6415    7.6359    6.6462 C   0  0  0  0  0  0  0  0  0  0  0  0
   41.4787    6.2644    5.2815 H   0  0  0  0  0  0  0  0  0  0  0  0
   41.6801    5.8153    6.8728 H   0  0  0  0  0  0  0  0  0  0  0  0
   41.6141    7.3198    8.8569 O   0  0  0  0  0  0  0  0  0  0  0  0
   41.0002    8.1346    8.1023 C   0  0  0  0  0  0  0  0  0  0  0  0
   40.6604    9.2997    8.4137 O   0  0  0  0  0  0  0  0  0  0  0  0
   41.8312    6.4637    8.5438 H   0  0  0  0  0  0  0  0  0  0  0  0
   39.0989    5.7369    9.2120 O   0  0  0  0  0  0  0  0  0  0  0  0
   37.8427    5.9128    9.9468 C   0  0  0  0  0  0  0  0  0  0  0  0
   37.9783    5.0229   11.5179 P   0  0  0  0  0  0  0  0  0  0  0  0
   36.6921    5.1292   12.2553 O   0  0  0  0  0  0  0  0  0  0  0  0
   38.3748    3.6289   11.1146 O   0  0  0  0  0  0  0  0  0  0  0  0
   39.1729    5.6819   12.2854 O   0  0  0  0  0  0  0  0  0  0  0  0
   37.6418    3.2095   10.6375 H   0  0  0  0  0  0  0  0  0  0  0  0
   38.9291    6.5824   12.5511 H   0  0  0  0  0  0  0  0  0  0  0  0
 11 12  1  0  0  0
 10 12  1  0  0  0
 10  4  1  0  0  0
 15 16  1  0  0  0
 12 16  1  0  0  0
 16 17  2  0  0  0
  1  2  1  0  0  0
  1  5  1  0  0  0
 19 20  1  0  0  0
 19  3  1  0  0  0
  2  3  2  0  0  0
  6  5  1  0  0  0
  6  7  1  0  0  0
  6  8  1  0  0  0
  6  9  1  0  0  0
 20 21  1  0  0  0
  3  4  1  0  0  0
  4  5  2  0  0  0
 21 22  2  0  0  0
 21 23  1  0  0  0
 21 24  1  0  0  0
 11 13  1  0  0  0
 11 14  1  0  0  0
 15 18  1  0  0  0
 23 25  1  0  0  0
 24 26  1  0  0  0
M  END
> <minimizedAffinity>
-6.76085

$$$$
1VSO_AT1_A_258


 26 26  0  0  0  0  0  0  0  0999 V2000
   36.5206    6.8117    6.0796 O   0  0  0  0  0  0  0  0  0  0  0  0
   36.3901    7.8700    7.0081 N   0  0  0  0  0  0  0  0  0  0  0  0
   37.5232    7.8540    7.6698 C   0  0  0  0  0  0  0  0  0  0  0  0
   38.4299    6.8329    7.2357 C   0  0  0  0  0  0  0  0  0  0  0  0
   37.7298    6.2021    6.2261 C   0  0  0  0  0  0  0  0  0  0  0  0
   37.9221    5.0321    5.2553 C   0  0  0  0  0  0  0  0  0  0  0  0
   36.7064    5.0179    4.2977 C   0  0  0  0  0  0  0  0  0  0  0  0
   39.1939    5.2262    4.4356 C   0  0  0  0  0  0  0  0  0  0  0  0
   37.9836    3.6746    5.9426 C   0  0  0  0  0  0  0  0  0  0  0  0
   39.7773    6.6433    7.8655 C   0  0  0  0  0  0  0  0  0  0  0  0
   41.9280    7.1700    6.6272 N   0  0  0  0  0  0  0  0  0  0  0  0
   40.8145    7.7190    7.5317 C   0  0  0  0  0  0  0  0  0  0  0  0
   41.5170    6.7901    5.7745 H   0  0  0  0  0  0  0  0  0  0  0  0
   42.4329    6.4327    7.1190 H   0  0  0  0  0  0  0  0  0  0  0  0
   40.7025    8.7346    9.7428 O   0  0  0  0  0  0  0  0  0  0  0  0
   41.4823    8.2990    8.8413 C   0  0  0  0  0  0  0  0  0  0  0  0
   42.7335    8.2865    8.9057 O   0  0  0  0  0  0  0  0  0  0  0  0
   39.7749    8.7068    9.6134 H   0  0  0  0  0  0  0  0  0  0  0  0
   37.8337    8.6943    8.6755 O   0  0  0  0  0  0  0  0  0  0  0  0
   36.7645    9.0516    9.6127 C   0  0  0  0  0  0  0  0  0  0  0  0
   37.5259    9.5030   11.1922 P   0  0  0  0  0  0  0  0  0  0  0  0
   36.4740    9.9874   12.1241 O   0  0  0  0  0  0  0  0  0  0  0  0
   38.2403    8.2514   11.6239 O   0  0  0  0  0  0  0  0  0  0  0  0
   38.5922   10.5997   10.8596 O   0  0  0  0  0  0  0  0  0  0  0  0
   37.5893    7.5634   11.8331 H   0  0  0  0  0  0  0  0  0  0  0  0
   38.1433   11.4127   10.5796 H   0  0  0  0  0  0  0  0  0  0  0  0
 11 12  1  0  0  0
 10 12  1  0  0  0
 10  4  1  0  0  0
 15 16  1  0  0  0
 12 16  1  0  0  0
 16 17  2  0  0  0
  1  2  1  0  0  0
  1  5  1  0  0  0
 19 20  1  0  0  0
 19  3  1  0  0  0
  2  3  2  0  0  0
  6  5  1  0  0  0
  6  7  1  0  0  0
  6  8  1  0  0  0
  6  9  1  0  0  0
 20 21  1  0  0  0
  3  4  1  0  0  0
  4  5  2  0  0  0
 21 22  2  0  0  0
 21 23  1  0  0  0
 21 24  1  0  0  0
 11 13  1  0  0  0
 11 14  1  0  0  0
 15 18  1  0  0  0
 23 25  1  0  0  0
 24 26  1  0  0  0
M  END
> <minimizedAffinity>
-6.73488

$$$$
1VSO_AT1_A_258


 26 26  0  0  0  0  0  0  0  0999 V2000
   36.0099    4.5086    7.9816 O   0  0  0  0  0  0  0  0  0  0  0  0
   36.2464    4.8596    6.6326 N   0  0  0  0  0  0  0  0  0  0  0  0
   37.4344    5.4167    6.6527 C   0  0  0  0  0  0  0  0  0  0  0  0
   38.0279    5.4620    7.9561 C   0  0  0  0  0  0  0  0  0  0  0  0
   37.0687    4.8737    8.7566 C   0  0  0  0  0  0  0  0  0  0  0  0
   36.8617    4.5335   10.2364 C   0  0  0  0  0  0  0  0  0  0  0  0
   36.8876    5.8635   11.0272 C   0  0  0  0  0  0  0  0  0  0  0  0
   35.5070    3.8630   10.4424 C   0  0  0  0  0  0  0  0  0  0  0  0
   37.9472    3.6337   10.8119 C   0  0  0  0  0  0  0  0  0  0  0  0
   39.3811    6.0621    8.1951 C   0  0  0  0  0  0  0  0  0  0  0  0
   39.2389    8.3397    7.0868 N   0  0  0  0  0  0  0  0  0  0  0  0
   39.3974    7.5778    8.4111 C   0  0  0  0  0  0  0  0  0  0  0  0
   38.3738    8.0512    6.6300 H   0  0  0  0  0  0  0  0  0  0  0  0
   40.0305    8.1319    6.4781 H   0  0  0  0  0  0  0  0  0  0  0  0
   41.7268    7.2451    9.0407 O   0  0  0  0  0  0  0  0  0  0  0  0
   40.7440    8.0462    9.0929 C   0  0  0  0  0  0  0  0  0  0  0  0
   40.7547    9.1761    9.6343 O   0  0  0  0  0  0  0  0  0  0  0  0
   41.6331    6.4159    8.6146 H   0  0  0  0  0  0  0  0  0  0  0  0
   38.0617    5.9201    5.5723 O   0  0  0  0  0  0  0  0  0  0  0  0
   38.5073    4.9725    4.5464 C   0  0  0  0  0  0  0  0  0  0  0  0
   40.3052    4.8026    4.6778 P   0  0  0  0  0  0  0  0  0  0  0  0
   40.6272    3.7225    5.6469 O   0  0  0  0  0  0  0  0  0  0  0  0
   40.7523    4.5515    3.2634 O   0  0  0  0  0  0  0  0  0  0  0  0
   40.8390    6.2024    5.1315 O   0  0  0  0  0  0  0  0  0  0  0  0
   40.4273    3.6858    2.9705 H   0  0  0  0  0  0  0  0  0  0  0  0
   40.5568    6.3761    6.0431 H   0  0  0  0  0  0  0  0  0  0  0  0
 11 12  1  0  0  0
 10 12  1  0  0  0
 10  4  1  0  0  0
 15 16  1  0  0  0
 12 16  1  0  0  0
 16 17  2  0  0  0
  1  2  1  0  0  0
  1  5  1  0  0  0
 19 20  1  0  0  0
 19  3  1  0  0  0
  2  3  2  0  0  0
  6  5  1  0  0  0
  6  7  1  0  0  0
  6  8  1  0  0  0
  6  9  1  0  0  0
 20 21  1  0  0  0
  3  4  1  0  0  0
  4  5  2  0  0  0
 21 22  2  0  0  0
 21 23  1  0  0  0
 21 24  1  0  0  0
 11 13  1  0  0  0
 11 14  1  0  0  0
 15 18  1  0  0  0
 23 25  1  0  0  0
 24 26  1  0  0  0
M  END
> <minimizedAffinity>
-6.50682

$$$$
1VSO_AT1_A_258


 26 26  0  0  0  0  0  0  0  0999 V2000
   39.9967    5.3234    6.6184 O   0  0  0  0  0  0  0  0  0  0  0  0
   39.3884    4.0483    6.5604 N   0  0  0  0  0  0  0  0  0  0  0  0
   38.5187    4.0659    7.5429 C   0  0  0  0  0  0  0  0  0  0  0  0
   38.4991    5.2985    8.2734 C   0  0  0  0  0  0  0  0  0  0  0  0
   39.4658    6.0532    7.6386 C   0  0  0  0  0  0  0  0  0  0  0  0
   40.1003    7.4426    7.7624 C   0  0  0  0  0  0  0  0  0  0  0  0
   40.8879    7.7119    6.4576 C   0  0  0  0  0  0  0  0  0  0  0  0
   39.0193    8.5080    7.9153 C   0  0  0  0  0  0  0  0  0  0  0  0
   41.0774    7.5644    8.9242 C   0  0  0  0  0  0  0  0  0  0  0  0
   37.5792    5.5210    9.4364 C   0  0  0  0  0  0  0  0  0  0  0  0
   38.2867    4.7638   11.7520 N   0  0  0  0  0  0  0  0  0  0  0  0
   38.2630    5.9241   10.7457 C   0  0  0  0  0  0  0  0  0  0  0  0
   38.7562    3.9606   11.3338 H   0  0  0  0  0  0  0  0  0  0  0  0
   37.3306    4.5082   11.9989 H   0  0  0  0  0  0  0  0  0  0  0  0
   36.4904    7.5917   10.8449 O   0  0  0  0  0  0  0  0  0  0  0  0
   37.5308    7.1503   11.4222 C   0  0  0  0  0  0  0  0  0  0  0  0
   38.0208    7.6019   12.4832 O   0  0  0  0  0  0  0  0  0  0  0  0
   36.1908    7.1943   10.0510 H   0  0  0  0  0  0  0  0  0  0  0  0
   37.7134    3.0371    7.8703 O   0  0  0  0  0  0  0  0  0  0  0  0
   38.1036    2.2113    9.0169 C   0  0  0  0  0  0  0  0  0  0  0  0
   36.6027    1.7574    9.9225 P   0  0  0  0  0  0  0  0  0  0  0  0
   36.2431    0.3508    9.6038 O   0  0  0  0  0  0  0  0  0  0  0  0
   36.9511    2.0215   11.3620 O   0  0  0  0  0  0  0  0  0  0  0  0
   35.5040    2.7794    9.4767 O   0  0  0  0  0  0  0  0  0  0  0  0
   37.6320    1.3937   11.6503 H   0  0  0  0  0  0  0  0  0  0  0  0
   35.2706    2.6191    8.5489 H   0  0  0  0  0  0  0  0  0  0  0  0
 11 12  1  0  0  0
 10 12  1  0  0  0
 10  4  1  0  0  0
 15 16  1  0  0  0
 12 16  1  0  0  0
 16 17  2  0  0  0
  1  2  1  0  0  0
  1  5  1  0  0  0
 19 20  1  0  0  0
 19  3  1  0  0  0
  2  3  2  0  0  0
  6  5  1  0  0  0
  6  7  1  0  0  0
  6  8  1  0  0  0
  6  9  1  0  0  0
 20 21  1  0  0  0
  3  4  1  0  0  0
  4  5  2  0  0  0
 21 22  2  0  0  0
 21 23  1  0  0  0
 21 24  1  0  0  0
 11 13  1  0  0  0
 11 14  1  0  0  0
 15 18  1  0  0  0
 23 25  1  0  0  0
 24 26  1  0  0  0
M  END
> <minimizedAffinity>
-6.46728

$$$$
1VSO_AT1_A_258


 26 26  0  0  0  0  0  0  0  0999 V2000
   38.9478    2.7207    6.8801 O   0  0  0  0  0  0  0  0  0  0  0  0
   38.5986    2.3586    8.2015 N   0  0  0  0  0  0  0  0  0  0  0  0
   38.3306    3.5034    8.7845 C   0  0  0  0  0  0  0  0  0  0  0  0
   38.4768    4.6379    7.9216 C   0  0  0  0  0  0  0  0  0  0  0  0
   38.8765    4.0722    6.7269 C   0  0  0  0  0  0  0  0  0  0  0  0
   39.2623    4.5270    5.3153 C   0  0  0  0  0  0  0  0  0  0  0  0
   39.8799    3.3091    4.5870 C   0  0  0  0  0  0  0  0  0  0  0  0
   38.0256    4.9855    4.5488 C   0  0  0  0  0  0  0  0  0  0  0  0
   40.2940    5.6470    5.2972 C   0  0  0  0  0  0  0  0  0  0  0  0
   38.2216    6.0375    8.3953 C   0  0  0  0  0  0  0  0  0  0  0  0
   39.1933    6.5360   10.6851 N   0  0  0  0  0  0  0  0  0  0  0  0
   39.3724    6.6887    9.1672 C   0  0  0  0  0  0  0  0  0  0  0  0
   39.1172    5.5465   10.9206 H   0  0  0  0  0  0  0  0  0  0  0  0
   38.3454    7.0214   10.9780 H   0  0  0  0  0  0  0  0  0  0  0  0
   39.6709    9.0184    9.8123 O   0  0  0  0  0  0  0  0  0  0  0  0
   39.4870    8.2296    8.8354 C   0  0  0  0  0  0  0  0  0  0  0  0
   39.3940    8.5700    7.6332 O   0  0  0  0  0  0  0  0  0  0  0  0
   39.7290    8.6793   10.6838 H   0  0  0  0  0  0  0  0  0  0  0  0
   37.9621    3.6379   10.0730 O   0  0  0  0  0  0  0  0  0  0  0  0
   37.7818    2.4119   10.8563 C   0  0  0  0  0  0  0  0  0  0  0  0
   36.1085    1.7898   10.5539 P   0  0  0  0  0  0  0  0  0  0  0  0
   35.2601    2.8943   10.0344 O   0  0  0  0  0  0  0  0  0  0  0  0
   36.3129    0.6371    9.6090 O   0  0  0  0  0  0  0  0  0  0  0  0
   35.6017    1.2303   11.9252 O   0  0  0  0  0  0  0  0  0  0  0  0
   36.6273    0.9715    8.7545 H   0  0  0  0  0  0  0  0  0  0  0  0
   35.4660    1.9650   12.5439 H   0  0  0  0  0  0  0  0  0  0  0  0
 11 12  1  0  0  0
 10 12  1  0  0  0
 10  4  1  0  0  0
 15 16  1  0  0  0
 12 16  1  0  0  0
 16 17  2  0  0  0
  1  2  1  0  0  0
  1  5  1  0  0  0
 19 20  1  0  0  0
 19  3  1  0  0  0
  2  3  2  0  0  0
  6  5  1  0  0  0
  6  7  1  0  0  0
  6  8  1  0  0  0
  6  9  1  0  0  0
 20 21  1  0  0  0
  3  4  1  0  0  0
  4  5  2  0  0  0
 21 22  2  0  0  0
 21 23  1  0  0  0
 21 24  1  0  0  0
 11 13  1  0  0  0
 11 14  1  0  0  0
 15 18  1  0  0  0
 23 25  1  0  0  0
 24 26  1  0  0  0
M  END
> <minimizedAffinity>
-6.43478

$$$$
1VSO_AT1_A_258


 26 26  0  0  0  0  0  0  0  0999 V2000
   38.9140    4.0637    8.8170 O   0  0  0  0  0  0  0  0  0  0  0  0
   39.2438    4.2515    7.4550 N   0  0  0  0  0  0  0  0  0  0  0  0
   38.4639    5.2348    7.0717 C   0  0  0  0  0  0  0  0  0  0  0  0
   37.6136    5.7348    8.1110 C   0  0  0  0  0  0  0  0  0  0  0  0
   37.9452    4.9439    9.1935 C   0  0  0  0  0  0  0  0  0  0  0  0
   37.5329    4.7759   10.6598 C   0  0  0  0  0  0  0  0  0  0  0  0
   37.8081    3.3050   11.0544 C   0  0  0  0  0  0  0  0  0  0  0  0
   38.3648    5.6906   11.5533 C   0  0  0  0  0  0  0  0  0  0  0  0
   36.0569    5.0527   10.9127 C   0  0  0  0  0  0  0  0  0  0  0  0
   36.6446    6.8552    7.8779 C   0  0  0  0  0  0  0  0  0  0  0  0
   38.6079    8.4234    7.5283 N   0  0  0  0  0  0  0  0  0  0  0  0
   37.1988    8.2621    8.1181 C   0  0  0  0  0  0  0  0  0  0  0  0
   38.5853    8.2115    6.5308 H   0  0  0  0  0  0  0  0  0  0  0  0
   39.2482    7.7829    7.9975 H   0  0  0  0  0  0  0  0  0  0  0  0
   36.2016    8.4446   10.3328 O   0  0  0  0  0  0  0  0  0  0  0  0
   37.2674    8.5967    9.6611 C   0  0  0  0  0  0  0  0  0  0  0  0
   38.3671    8.9842   10.1196 O   0  0  0  0  0  0  0  0  0  0  0  0
   35.4193    8.1496    9.9099 H   0  0  0  0  0  0  0  0  0  0  0  0
   38.4304    5.7431    5.8249 O   0  0  0  0  0  0  0  0  0  0  0  0
   39.7079    5.8965    5.1225 C   0  0  0  0  0  0  0  0  0  0  0  0
   39.8869    4.5133    3.9678 P   0  0  0  0  0  0  0  0  0  0  0  0
   38.6031    4.3048    3.2482 O   0  0  0  0  0  0  0  0  0  0  0  0
   41.0521    4.9089    3.1024 O   0  0  0  0  0  0  0  0  0  0  0  0
   40.3027    3.2782    4.8350 O   0  0  0  0  0  0  0  0  0  0  0  0
   40.8065    5.6743    2.5595 H   0  0  0  0  0  0  0  0  0  0  0  0
   39.5587    3.0133    5.3981 H   0  0  0  0  0  0  0  0  0  0  0  0
 11 12  1  0  0  0
 10 12  1  0  0  0
 10  4  1  0  0  0
 15 16  1  0  0  0
 12 16  1  0  0  0
 16 17  2  0  0  0
  1  2  1  0  0  0
  1  5  1  0  0  0
 19 20  1  0  0  0
 19  3  1  0  0  0
  2  3  2  0  0  0
  6  5  1  0  0  0
  6  7  1  0  0  0
  6  8  1  0  0  0
  6  9  1  0  0  0
 20 21  1  0  0  0
  3  4  1  0  0  0
  4  5  2  0  0  0
 21 22  2  0  0  0
 21 23  1  0  0  0
 21 24  1  0  0  0
 11 13  1  0  0  0
 11 14  1  0  0  0
 15 18  1  0  0  0
 23 25  1  0  0  0
 24 26  1  0  0  0
M  END
> <minimizedAffinity>
-6.39812

$$$$
