3S71_EVD_B_1


 15 16  0  0  0  0  0  0  0  0999 V2000
   17.2899    2.5529   15.5689 O   0  0  0  0  0  0  0  0  0  0  0  0
   17.0114    3.7886   15.0360 C   0  0  0  0  0  0  0  0  0  0  0  0
   15.6288    4.1011   15.2666 C   0  0  0  0  0  0  0  0  0  0  0  0
   13.8767    2.6766   16.5660 C   0  0  0  0  0  0  0  0  0  0  0  0
   13.7410    1.4507   17.1981 C   0  0  0  0  0  0  0  0  0  0  0  0
   14.8129    0.5486   17.3882 C   0  0  0  0  0  0  0  0  0  0  0  0
   16.0607    0.8598   16.8427 C   0  0  0  0  0  0  0  0  0  0  0  0
   16.1487    2.0474   16.1693 C   0  0  0  0  0  0  0  0  0  0  0  0
   15.1189    2.9760   15.9923 C   0  0  0  0  0  0  0  0  0  0  0  0
   19.6130    4.2136   14.8443 N   0  0  0  0  0  0  0  0  0  0  0  0
   18.2186    4.7063   14.2521 S   0  0  0  0  0  0  0  0  0  0  0  0
   18.0983    4.3425   12.8579 O   0  0  0  0  0  0  0  0  0  0  0  0
   17.9190    6.0790   14.6411 O   0  0  0  0  0  0  0  0  0  0  0  0
   19.7863    3.2522   14.5510 H   0  0  0  0  0  0  0  0  0  0  0  0
   19.5847    4.2585   15.8629 H   0  0  0  0  0  0  0  0  0  0  0  0
 11 10  1  0  0  0
  8  1  1  0  0  0
  1  2  1  0  0  0
  2 11  1  0  0  0
 12 11  2  0  0  0
 11 13  2  0  0  0
  2  3  2  0  0  0
  9  3  1  0  0  0
  5  4  1  0  0  0
  4  9  2  0  0  0
  6  5  2  0  0  0
  6  7  1  0  0  0
  7  8  2  0  0  0
  8  9  1  0  0  0
 10 14  1  0  0  0
 10 15  1  0  0  0
M  END
> <minimizedAffinity>
-6.86911

$$$$
3S71_EVD_B_1


 15 16  0  0  0  0  0  0  0  0999 V2000
   17.1559    2.5941   16.0528 O   0  0  0  0  0  0  0  0  0  0  0  0
   15.8033    2.3887   16.1822 C   0  0  0  0  0  0  0  0  0  0  0  0
   15.0994    3.4690   15.5498 C   0  0  0  0  0  0  0  0  0  0  0  0
   16.1219    5.4812   14.2487 C   0  0  0  0  0  0  0  0  0  0  0  0
   17.3465    6.0419   13.9220 C   0  0  0  0  0  0  0  0  0  0  0  0
   18.5873    5.4370   14.2275 C   0  0  0  0  0  0  0  0  0  0  0  0
   18.5958    4.2535   14.9696 C   0  0  0  0  0  0  0  0  0  0  0  0
   17.3738    3.7570   15.3327 C   0  0  0  0  0  0  0  0  0  0  0  0
   16.1295    4.3113   15.0188 C   0  0  0  0  0  0  0  0  0  0  0  0
   13.6058    1.0745   16.8376 N   0  0  0  0  0  0  0  0  0  0  0  0
   15.1904    1.0153   16.9898 S   0  0  0  0  0  0  0  0  0  0  0  0
   15.7328   -0.1057   16.2551 O   0  0  0  0  0  0  0  0  0  0  0  0
   15.6100    1.2093   18.3724 O   0  0  0  0  0  0  0  0  0  0  0  0
   13.3527    0.9350   15.8594 H   0  0  0  0  0  0  0  0  0  0  0  0
   13.2681    1.9850   17.1496 H   0  0  0  0  0  0  0  0  0  0  0  0
 11 10  1  0  0  0
  8  1  1  0  0  0
  1  2  1  0  0  0
  2 11  1  0  0  0
 12 11  2  0  0  0
 11 13  2  0  0  0
  2  3  2  0  0  0
  9  3  1  0  0  0
  5  4  1  0  0  0
  4  9  2  0  0  0
  6  5  2  0  0  0
  6  7  1  0  0  0
  7  8  2  0  0  0
  8  9  1  0  0  0
 10 14  1  0  0  0
 10 15  1  0  0  0
M  END
> <minimizedAffinity>
-6.84347

$$$$
3S71_EVD_B_1


 15 16  0  0  0  0  0  0  0  0999 V2000
   16.6619    1.9475   14.3090 O   0  0  0  0  0  0  0  0  0  0  0  0
   16.3806    3.1719   13.7521 C   0  0  0  0  0  0  0  0  0  0  0  0
   15.3901    3.8374   14.5512 C   0  0  0  0  0  0  0  0  0  0  0  0
   14.3168    2.9958   16.7709 C   0  0  0  0  0  0  0  0  0  0  0  0
   14.3015    1.8922   17.6089 C   0  0  0  0  0  0  0  0  0  0  0  0
   15.1372    0.7659   17.4302 C   0  0  0  0  0  0  0  0  0  0  0  0
   15.9672    0.7136   16.3078 C   0  0  0  0  0  0  0  0  0  0  0  0
   15.9144    1.7894   15.4643 C   0  0  0  0  0  0  0  0  0  0  0  0
   15.1256    2.9317   15.6292 C   0  0  0  0  0  0  0  0  0  0  0  0
   18.4767    2.8057   12.1842 N   0  0  0  0  0  0  0  0  0  0  0  0
   17.1652    3.6982   12.3303 S   0  0  0  0  0  0  0  0  0  0  0  0
   16.2260    3.4035   11.2712 O   0  0  0  0  0  0  0  0  0  0  0  0
   17.4865    5.0930   12.6068 O   0  0  0  0  0  0  0  0  0  0  0  0
   18.2111    1.8399   11.9919 H   0  0  0  0  0  0  0  0  0  0  0  0
   19.0127    2.8447   13.0511 H   0  0  0  0  0  0  0  0  0  0  0  0
 11 10  1  0  0  0
  8  1  1  0  0  0
  1  2  1  0  0  0
  2 11  1  0  0  0
 12 11  2  0  0  0
 11 13  2  0  0  0
  2  3  2  0  0  0
  9  3  1  0  0  0
  5  4  1  0  0  0
  4  9  2  0  0  0
  6  5  2  0  0  0
  6  7  1  0  0  0
  7  8  2  0  0  0
  8  9  1  0  0  0
 10 14  1  0  0  0
 10 15  1  0  0  0
M  END
> <minimizedAffinity>
-6.82466

$$$$
3S71_EVD_B_1


 15 16  0  0  0  0  0  0  0  0999 V2000
   14.7995    3.4603   15.7067 O   0  0  0  0  0  0  0  0  0  0  0  0
   15.4645    2.4661   16.3832 C   0  0  0  0  0  0  0  0  0  0  0  0
   16.8620    2.5274   16.0578 C   0  0  0  0  0  0  0  0  0  0  0  0
   18.0596    4.2661   14.5315 C   0  0  0  0  0  0  0  0  0  0  0  0
   17.7835    5.3404   13.7006 C   0  0  0  0  0  0  0  0  0  0  0  0
   16.4932    5.8985   13.5504 C   0  0  0  0  0  0  0  0  0  0  0  0
   15.4169    5.2935   14.2039 C   0  0  0  0  0  0  0  0  0  0  0  0
   15.7100    4.1963   14.9667 C   0  0  0  0  0  0  0  0  0  0  0  0
   16.9774    3.6401   15.1629 C   0  0  0  0  0  0  0  0  0  0  0  0
   15.4202    0.0110   17.3611 N   0  0  0  0  0  0  0  0  0  0  0  0
   14.6350    1.3957   17.4225 S   0  0  0  0  0  0  0  0  0  0  0  0
   14.7601    1.9965   18.7317 O   0  0  0  0  0  0  0  0  0  0  0  0
   13.3077    1.2932   16.8282 O   0  0  0  0  0  0  0  0  0  0  0  0
   16.3410    0.1232   17.7852 H   0  0  0  0  0  0  0  0  0  0  0  0
   15.5266   -0.2766   16.3883 H   0  0  0  0  0  0  0  0  0  0  0  0
 11 10  1  0  0  0
  8  1  1  0  0  0
  1  2  1  0  0  0
  2 11  1  0  0  0
 12 11  2  0  0  0
 11 13  2  0  0  0
  2  3  2  0  0  0
  9  3  1  0  0  0
  5  4  1  0  0  0
  4  9  2  0  0  0
  6  5  2  0  0  0
  6  7  1  0  0  0
  7  8  2  0  0  0
  8  9  1  0  0  0
 10 14  1  0  0  0
 10 15  1  0  0  0
M  END
> <minimizedAffinity>
-6.67626

$$$$
3S71_EVD_B_1


 15 16  0  0  0  0  0  0  0  0999 V2000
   15.2766    3.3160   14.3167 O   0  0  0  0  0  0  0  0  0  0  0  0
   16.1011    2.4554   13.6327 C   0  0  0  0  0  0  0  0  0  0  0  0
   16.4638    1.3649   14.4941 C   0  0  0  0  0  0  0  0  0  0  0  0
   15.6589    0.9369   16.9346 C   0  0  0  0  0  0  0  0  0  0  0  0
   14.8995    1.5209   17.9360 C   0  0  0  0  0  0  0  0  0  0  0  0
   14.1564    2.7104   17.7579 C   0  0  0  0  0  0  0  0  0  0  0  0
   14.2495    3.3873   16.5394 C   0  0  0  0  0  0  0  0  0  0  0  0
   15.0568    2.8206   15.5913 C   0  0  0  0  0  0  0  0  0  0  0  0
   15.7774    1.6300   15.7232 C   0  0  0  0  0  0  0  0  0  0  0  0
   15.5338    1.9142   11.1086 N   0  0  0  0  0  0  0  0  0  0  0  0
   16.5423    2.7546   12.0110 S   0  0  0  0  0  0  0  0  0  0  0  0
   16.3249    4.1732   11.8351 O   0  0  0  0  0  0  0  0  0  0  0  0
   17.9047    2.2433   11.9217 O   0  0  0  0  0  0  0  0  0  0  0  0
   14.5943    2.3014   11.1978 H   0  0  0  0  0  0  0  0  0  0  0  0
   15.5314    0.9418   11.4166 H   0  0  0  0  0  0  0  0  0  0  0  0
 11 10  1  0  0  0
  8  1  1  0  0  0
  1  2  1  0  0  0
  2 11  1  0  0  0
 12 11  2  0  0  0
 11 13  2  0  0  0
  2  3  2  0  0  0
  9  3  1  0  0  0
  5  4  1  0  0  0
  4  9  2  0  0  0
  6  5  2  0  0  0
  6  7  1  0  0  0
  7  8  2  0  0  0
  8  9  1  0  0  0
 10 14  1  0  0  0
 10 15  1  0  0  0
M  END
> <minimizedAffinity>
-6.59175

$$$$
3S71_EVD_B_1


 15 16  0  0  0  0  0  0  0  0999 V2000
   14.7901    4.1400   15.1997 O   0  0  0  0  0  0  0  0  0  0  0  0
   15.8872    4.1765   14.3730 C   0  0  0  0  0  0  0  0  0  0  0  0
   16.6884    3.0063   14.6002 C   0  0  0  0  0  0  0  0  0  0  0  0
   16.1794    1.0255   16.2140 C   0  0  0  0  0  0  0  0  0  0  0  0
   15.2629    0.6268   17.1740 C   0  0  0  0  0  0  0  0  0  0  0  0
   14.0869    1.3506   17.4774 C   0  0  0  0  0  0  0  0  0  0  0  0
   13.8666    2.5754   16.8427 C   0  0  0  0  0  0  0  0  0  0  0  0
   14.8204    2.9739   15.9464 C   0  0  0  0  0  0  0  0  0  0  0  0
   15.9756    2.2674   15.5993 C   0  0  0  0  0  0  0  0  0  0  0  0
   16.5772    4.8177   11.9035 N   0  0  0  0  0  0  0  0  0  0  0  0
   16.1342    5.4706   13.2874 S   0  0  0  0  0  0  0  0  0  0  0  0
   14.8341    6.0916   13.1665 O   0  0  0  0  0  0  0  0  0  0  0  0
   17.2158    6.2343   13.8975 O   0  0  0  0  0  0  0  0  0  0  0  0
   15.7960    4.2936   11.5093 H   0  0  0  0  0  0  0  0  0  0  0  0
   17.3641    4.1881   12.0610 H   0  0  0  0  0  0  0  0  0  0  0  0
 11 10  1  0  0  0
  8  1  1  0  0  0
  1  2  1  0  0  0
  2 11  1  0  0  0
 12 11  2  0  0  0
 11 13  2  0  0  0
  2  3  2  0  0  0
  9  3  1  0  0  0
  5  4  1  0  0  0
  4  9  2  0  0  0
  6  5  2  0  0  0
  6  7  1  0  0  0
  7  8  2  0  0  0
  8  9  1  0  0  0
 10 14  1  0  0  0
 10 15  1  0  0  0
M  END
> <minimizedAffinity>
-6.16781

$$$$
3S71_EVD_B_1


 15 16  0  0  0  0  0  0  0  0999 V2000
   17.8251    3.1450   13.3807 O   0  0  0  0  0  0  0  0  0  0  0  0
   18.2840    4.3487   12.9021 C   0  0  0  0  0  0  0  0  0  0  0  0
   17.4469    5.4043   13.3996 C   0  0  0  0  0  0  0  0  0  0  0  0
   15.4294    5.1911   15.0340 C   0  0  0  0  0  0  0  0  0  0  0  0
   14.6730    4.2342   15.6919 C   0  0  0  0  0  0  0  0  0  0  0  0
   14.9759    2.8533   15.6741 C   0  0  0  0  0  0  0  0  0  0  0  0
   16.0416    2.4070   14.8889 C   0  0  0  0  0  0  0  0  0  0  0  0
   16.7310    3.3674   14.2003 C   0  0  0  0  0  0  0  0  0  0  0  0
   16.4790    4.7422   14.2225 C   0  0  0  0  0  0  0  0  0  0  0  0
   20.4753    3.0898   12.1279 N   0  0  0  0  0  0  0  0  0  0  0  0
   19.6529    4.4325   11.8857 S   0  0  0  0  0  0  0  0  0  0  0  0
   19.1060    4.4625   10.5476 O   0  0  0  0  0  0  0  0  0  0  0  0
   20.3733    5.6042   12.3690 O   0  0  0  0  0  0  0  0  0  0  0  0
   19.9400    2.2954   11.7776 H   0  0  0  0  0  0  0  0  0  0  0  0
   20.6459    2.9710   13.1265 H   0  0  0  0  0  0  0  0  0  0  0  0
 11 10  1  0  0  0
  8  1  1  0  0  0
  1  2  1  0  0  0
  2 11  1  0  0  0
 12 11  2  0  0  0
 11 13  2  0  0  0
  2  3  2  0  0  0
  9  3  1  0  0  0
  5  4  1  0  0  0
  4  9  2  0  0  0
  6  5  2  0  0  0
  6  7  1  0  0  0
  7  8  2  0  0  0
  8  9  1  0  0  0
 10 14  1  0  0  0
 10 15  1  0  0  0
M  END
> <minimizedAffinity>
-5.81968

$$$$
3S71_EVD_B_1


 15 16  0  0  0  0  0  0  0  0999 V2000
   18.3357    3.6622   13.7231 O   0  0  0  0  0  0  0  0  0  0  0  0
   17.3042    3.6657   14.6311 C   0  0  0  0  0  0  0  0  0  0  0  0
   17.0956    5.0061   15.1029 C   0  0  0  0  0  0  0  0  0  0  0  0
   18.3410    7.1653   14.3454 C   0  0  0  0  0  0  0  0  0  0  0  0
   19.3833    7.5774   13.5304 C   0  0  0  0  0  0  0  0  0  0  0  0
   20.0913    6.7072   12.6700 C   0  0  0  0  0  0  0  0  0  0  0  0
   19.7899    5.3433   12.6938 C   0  0  0  0  0  0  0  0  0  0  0  0
   18.7995    4.9564   13.5547 C   0  0  0  0  0  0  0  0  0  0  0  0
   18.0583    5.7943   14.3929 C   0  0  0  0  0  0  0  0  0  0  0  0
   17.2600    1.6000   16.2793 N   0  0  0  0  0  0  0  0  0  0  0  0
   16.4805    2.2275   15.0397 S   0  0  0  0  0  0  0  0  0  0  0  0
   15.1616    2.6685   15.4355 O   0  0  0  0  0  0  0  0  0  0  0  0
   16.6086    1.4023   13.8448 O   0  0  0  0  0  0  0  0  0  0  0  0
   17.1468    2.2043   17.0933 H   0  0  0  0  0  0  0  0  0  0  0  0
   18.2509    1.5182   16.0518 H   0  0  0  0  0  0  0  0  0  0  0  0
 11 10  1  0  0  0
  8  1  1  0  0  0
  1  2  1  0  0  0
  2 11  1  0  0  0
 12 11  2  0  0  0
 11 13  2  0  0  0
  2  3  2  0  0  0
  9  3  1  0  0  0
  5  4  1  0  0  0
  4  9  2  0  0  0
  6  5  2  0  0  0
  6  7  1  0  0  0
  7  8  2  0  0  0
  8  9  1  0  0  0
 10 14  1  0  0  0
 10 15  1  0  0  0
M  END
> <minimizedAffinity>
-5.78100

$$$$
3S71_EVD_B_1


 15 16  0  0  0  0  0  0  0  0999 V2000
   16.3326    3.8347   13.6949 O   0  0  0  0  0  0  0  0  0  0  0  0
   16.9858    3.3136   14.7859 C   0  0  0  0  0  0  0  0  0  0  0  0
   18.0306    4.2147   15.1850 C   0  0  0  0  0  0  0  0  0  0  0  0
   18.6071    6.5332   14.1462 C   0  0  0  0  0  0  0  0  0  0  0  0
   18.2414    7.3654   13.1000 C   0  0  0  0  0  0  0  0  0  0  0  0
   17.1585    7.0966   12.2318 C   0  0  0  0  0  0  0  0  0  0  0  0
   16.4642    5.8926   12.3729 C   0  0  0  0  0  0  0  0  0  0  0  0
   16.8883    5.0621   13.3739 C   0  0  0  0  0  0  0  0  0  0  0  0
   17.9320    5.3123   14.2696 C   0  0  0  0  0  0  0  0  0  0  0  0
   16.6478    0.7375   14.3013 N   0  0  0  0  0  0  0  0  0  0  0  0
   16.5202    1.8182   15.4647 S   0  0  0  0  0  0  0  0  0  0  0  0
   17.4993    1.5727   16.4999 O   0  0  0  0  0  0  0  0  0  0  0  0
   15.1323    2.0317   15.8566 O   0  0  0  0  0  0  0  0  0  0  0  0
   17.6304    0.6165   14.0559 H   0  0  0  0  0  0  0  0  0  0  0  0
   16.1297    1.0565   13.4826 H   0  0  0  0  0  0  0  0  0  0  0  0
 11 10  1  0  0  0
  8  1  1  0  0  0
  1  2  1  0  0  0
  2 11  1  0  0  0
 12 11  2  0  0  0
 11 13  2  0  0  0
  2  3  2  0  0  0
  9  3  1  0  0  0
  5  4  1  0  0  0
  4  9  2  0  0  0
  6  5  2  0  0  0
  6  7  1  0  0  0
  7  8  2  0  0  0
  8  9  1  0  0  0
 10 14  1  0  0  0
 10 15  1  0  0  0
M  END
> <minimizedAffinity>
-5.77211

$$$$
3S71_EVD_B_1


 15 16  0  0  0  0  0  0  0  0999 V2000
   16.5443    3.6797   14.4593 O   0  0  0  0  0  0  0  0  0  0  0  0
   16.5572    2.3127   14.3200 C   0  0  0  0  0  0  0  0  0  0  0  0
   16.6427    1.9813   12.9252 C   0  0  0  0  0  0  0  0  0  0  0  0
   16.8530    3.6253   10.9151 C   0  0  0  0  0  0  0  0  0  0  0  0
   16.8562    4.9813   10.6289 C   0  0  0  0  0  0  0  0  0  0  0  0
   16.8304    5.9878   11.6214 C   0  0  0  0  0  0  0  0  0  0  0  0
   16.7118    5.6105   12.9612 C   0  0  0  0  0  0  0  0  0  0  0  0
   16.6469    4.2665   13.2089 C   0  0  0  0  0  0  0  0  0  0  0  0
   16.7035    3.2461   12.2552 C   0  0  0  0  0  0  0  0  0  0  0  0
   16.7317   -0.1938   15.1404 N   0  0  0  0  0  0  0  0  0  0  0  0
   16.4830    1.2841   15.6804 S   0  0  0  0  0  0  0  0  0  0  0  0
   17.5812    1.7142   16.5167 O   0  0  0  0  0  0  0  0  0  0  0  0
   15.1225    1.4591   16.1744 O   0  0  0  0  0  0  0  0  0  0  0  0
   17.6913   -0.2761   14.8047 H   0  0  0  0  0  0  0  0  0  0  0  0
   16.0859   -0.3894   14.3754 H   0  0  0  0  0  0  0  0  0  0  0  0
 11 10  1  0  0  0
  8  1  1  0  0  0
  1  2  1  0  0  0
  2 11  1  0  0  0
 12 11  2  0  0  0
 11 13  2  0  0  0
  2  3  2  0  0  0
  9  3  1  0  0  0
  5  4  1  0  0  0
  4  9  2  0  0  0
  6  5  2  0  0  0
  6  7  1  0  0  0
  7  8  2  0  0  0
  8  9  1  0  0  0
 10 14  1  0  0  0
 10 15  1  0  0  0
M  END
> <minimizedAffinity>
-5.76927

$$$$
