1BDQ_IM1_B_400


 42 44  0  0  0  0  0  0  0  0999 V2000
   -8.7851   17.0727   28.0054 C   0  0  0  0  0  0  0  0  0  0  0  0
  -10.2510   16.9148   27.6819 C   0  0  0  0  0  0  0  0  0  0  0  0
  -10.8058   18.2368   27.8498 O   0  0  0  0  0  0  0  0  0  0  0  0
  -10.6315   18.5484   28.7517 H   0  0  0  0  0  0  0  0  0  0  0  0
  -10.8946   15.8568   28.6225 C   0  0  0  0  0  0  0  0  0  0  0  0
  -10.2347   15.5569   30.9675 C   0  0  0  0  0  0  0  0  0  0  0  0
   -9.8016   14.4313   30.7279 O   0  0  0  0  0  0  0  0  0  0  0  0
  -10.7690   16.2998   30.0051 N   0  0  0  0  0  0  0  0  0  0  0  0
  -11.0978   17.1979   30.2383 H   0  0  0  0  0  0  0  0  0  0  0  0
  -10.1320   16.0666   32.2624 O   0  0  0  0  0  0  0  0  0  0  0  0
  -10.5930   15.4050   33.3950 C   0  0  0  0  0  0  0  0  0  0  0  0
  -12.0290   14.9321   33.2070 C   0  0  0  0  0  0  0  0  0  0  0  0
   -9.6471   14.2859   33.7937 C   0  0  0  0  0  0  0  0  0  0  0  0
  -10.5636   16.3769   34.5620 C   0  0  0  0  0  0  0  0  0  0  0  0
  -12.3714   15.6554   28.2817 C   0  0  0  0  0  0  0  0  0  0  0  0
  -12.9341   14.4007   28.9431 C   0  0  0  0  0  0  0  0  0  0  0  0
  -12.4360   13.1390   28.5910 C   0  0  0  0  0  0  0  0  0  0  0  0
  -12.9699   12.0058   29.2048 C   0  0  0  0  0  0  0  0  0  0  0  0
  -13.9859   12.1150   30.1594 C   0  0  0  0  0  0  0  0  0  0  0  0
  -14.4740   13.3619   30.5059 C   0  0  0  0  0  0  0  0  0  0  0  0
  -13.9542   14.5032   29.9031 C   0  0  0  0  0  0  0  0  0  0  0  0
   -7.8824   17.5052   26.9167 C   0  0  0  0  0  0  0  0  0  0  0  0
   -8.0441   16.5530   25.7296 C   0  0  0  0  0  0  0  0  0  0  0  0
   -7.7894   15.3579   25.8358 O   0  0  0  0  0  0  0  0  0  0  0  0
   -8.4416   17.0870   24.5843 N   0  0  0  0  0  0  0  0  0  0  0  0
   -8.6255   18.0533   24.5424 H   0  0  0  0  0  0  0  0  0  0  0  0
   -8.6130   16.2763   23.3838 C   0  0  0  0  0  0  0  0  0  0  0  0
   -7.7848   16.9930   22.3168 C   0  0  0  0  0  0  0  0  0  0  0  0
   -6.4960   17.1417   22.5025 N   0  0  0  0  0  0  0  0  0  0  0  0
   -6.0314   17.8750   21.4355 C   0  0  0  0  0  0  0  0  0  0  0  0
   -7.1470   18.1176   20.6413 C   0  0  0  0  0  0  0  0  0  0  0  0
   -8.2649   17.5369   21.2179 N   0  0  0  0  0  0  0  0  0  0  0  0
   -5.9653   16.7967   23.2566 H   0  0  0  0  0  0  0  0  0  0  0  0
  -10.0872   16.1889   22.9450 C   0  0  0  0  0  0  0  0  0  0  0  0
  -11.0105   16.1808   24.1468 C   0  0  0  0  0  0  0  0  0  0  0  0
   -6.4472   17.5267   27.5268 C   0  0  0  0  0  0  0  0  0  0  0  0
   -5.3547   17.7435   26.4934 C   0  0  0  0  0  0  0  0  0  0  0  0
   -4.4141   16.7285   26.2680 C   0  0  0  0  0  0  0  0  0  0  0  0
   -3.4876   16.8626   25.2477 C   0  0  0  0  0  0  0  0  0  0  0  0
   -3.4949   18.0036   24.4571 C   0  0  0  0  0  0  0  0  0  0  0  0
   -4.4295   19.0131   24.6778 C   0  0  0  0  0  0  0  0  0  0  0  0
   -5.3650   18.8929   25.6933 C   0  0  0  0  0  0  0  0  0  0  0  0
 11 12  1  0  0  0
 11 13  1  0  0  0
 11 14  1  0  0  0
 11 10  1  0  0  0
 10  6  1  0  0  0
  6  7  2  0  0  0
  6  8  1  0  0  0
  8  5  1  0  0  0
  5 15  1  0  0  0
  5  2  1  0  0  0
 15 16  1  0  0  0
 16 17  2  0  0  0
 16 21  1  0  0  0
 17 18  1  0  0  0
 18 19  2  0  0  0
 19 20  1  0  0  0
 20 21  2  0  0  0
  2  3  1  0  0  0
  2  1  1  0  0  0
  1 22  1  0  0  0
 22 36  1  0  0  0
 22 23  1  0  0  0
 36 37  1  0  0  0
 37 38  2  0  0  0
 37 42  1  0  0  0
 38 39  1  0  0  0
 39 40  2  0  0  0
 40 41  1  0  0  0
 41 42  2  0  0  0
 23 24  2  0  0  0
 23 25  1  0  0  0
 25 27  1  0  0  0
 27 34  1  0  0  0
 27 28  1  0  0  0
 34 35  1  0  0  0
 28 29  1  0  0  0
 28 32  2  0  0  0
 29 30  1  0  0  0
 30 31  2  0  0  0
 31 32  1  0  0  0
  8  9  1  0  0  0
  3  4  1  0  0  0
 25 26  1  0  0  0
 29 33  1  0  0  0
M  END
> <minimizedAffinity>
-9.51250

$$$$
1BDQ_IM1_B_400


 42 44  0  0  0  0  0  0  0  0999 V2000
  -10.6006   16.4810   27.1142 C   0  0  0  0  0  0  0  0  0  0  0  0
   -9.6068   17.5713   27.4342 C   0  0  0  0  0  0  0  0  0  0  0  0
  -10.2525   18.7897   27.0075 O   0  0  0  0  0  0  0  0  0  0  0  0
  -10.4775   18.7239   26.0663 H   0  0  0  0  0  0  0  0  0  0  0  0
   -8.2628   17.3012   26.6999 C   0  0  0  0  0  0  0  0  0  0  0  0
   -8.1147   16.5568   24.3658 C   0  0  0  0  0  0  0  0  0  0  0  0
   -7.6177   15.4868   24.7122 O   0  0  0  0  0  0  0  0  0  0  0  0
   -8.4532   17.4730   25.2654 N   0  0  0  0  0  0  0  0  0  0  0  0
   -8.8543   18.3135   24.9461 H   0  0  0  0  0  0  0  0  0  0  0  0
   -8.3523   16.7925   23.0111 O   0  0  0  0  0  0  0  0  0  0  0  0
   -9.1818   16.0048   22.2208 C   0  0  0  0  0  0  0  0  0  0  0  0
   -8.4920   14.7043   21.8287 C   0  0  0  0  0  0  0  0  0  0  0  0
  -10.5251   15.7845   22.8940 C   0  0  0  0  0  0  0  0  0  0  0  0
   -9.5020   16.7728   20.9500 C   0  0  0  0  0  0  0  0  0  0  0  0
   -7.1755   18.2577   27.1903 C   0  0  0  0  0  0  0  0  0  0  0  0
   -5.8573   18.0335   26.4550 C   0  0  0  0  0  0  0  0  0  0  0  0
   -5.4010   18.9814   25.5292 C   0  0  0  0  0  0  0  0  0  0  0  0
   -4.1960   18.7523   24.8649 C   0  0  0  0  0  0  0  0  0  0  0  0
   -3.4455   17.5986   25.1119 C   0  0  0  0  0  0  0  0  0  0  0  0
   -3.8979   16.6658   26.0276 C   0  0  0  0  0  0  0  0  0  0  0  0
   -5.0983   16.8772   26.6988 C   0  0  0  0  0  0  0  0  0  0  0  0
  -11.4077   15.9368   28.2276 C   0  0  0  0  0  0  0  0  0  0  0  0
  -10.4664   15.3736   29.2947 C   0  0  0  0  0  0  0  0  0  0  0  0
   -9.6859   14.4637   29.0355 O   0  0  0  0  0  0  0  0  0  0  0  0
  -10.5583   15.8953   30.5089 N   0  0  0  0  0  0  0  0  0  0  0  0
  -11.2061   16.6180   30.6741 H   0  0  0  0  0  0  0  0  0  0  0  0
   -9.7217   15.4236   31.6069 C   0  0  0  0  0  0  0  0  0  0  0  0
  -10.6981   15.1968   32.7615 C   0  0  0  0  0  0  0  0  0  0  0  0
  -11.5840   14.2354   32.6686 N   0  0  0  0  0  0  0  0  0  0  0  0
  -12.3620   14.3129   33.8004 C   0  0  0  0  0  0  0  0  0  0  0  0
  -11.8447   15.3770   34.5311 C   0  0  0  0  0  0  0  0  0  0  0  0
  -10.7701   15.9295   33.8532 N   0  0  0  0  0  0  0  0  0  0  0  0
  -11.6746   13.5861   31.9341 H   0  0  0  0  0  0  0  0  0  0  0  0
   -8.6509   16.4557   32.0089 C   0  0  0  0  0  0  0  0  0  0  0  0
   -8.6006   17.5990   31.0154 C   0  0  0  0  0  0  0  0  0  0  0  0
  -12.3610   14.8774   27.5940 C   0  0  0  0  0  0  0  0  0  0  0  0
  -13.0467   13.9913   28.6202 C   0  0  0  0  0  0  0  0  0  0  0  0
  -12.7156   12.6303   28.6803 C   0  0  0  0  0  0  0  0  0  0  0  0
  -13.2417   11.8374   29.6862 C   0  0  0  0  0  0  0  0  0  0  0  0
  -14.0966   12.3960   30.6266 C   0  0  0  0  0  0  0  0  0  0  0  0
  -14.4261   13.7485   30.5702 C   0  0  0  0  0  0  0  0  0  0  0  0
  -13.9059   14.5561   29.5711 C   0  0  0  0  0  0  0  0  0  0  0  0
 11 12  1  0  0  0
 11 13  1  0  0  0
 11 14  1  0  0  0
 11 10  1  0  0  0
 10  6  1  0  0  0
  6  7  2  0  0  0
  6  8  1  0  0  0
  8  5  1  0  0  0
  5 15  1  0  0  0
  5  2  1  0  0  0
 15 16  1  0  0  0
 16 17  2  0  0  0
 16 21  1  0  0  0
 17 18  1  0  0  0
 18 19  2  0  0  0
 19 20  1  0  0  0
 20 21  2  0  0  0
  2  3  1  0  0  0
  2  1  1  0  0  0
  1 22  1  0  0  0
 22 36  1  0  0  0
 22 23  1  0  0  0
 36 37  1  0  0  0
 37 38  2  0  0  0
 37 42  1  0  0  0
 38 39  1  0  0  0
 39 40  2  0  0  0
 40 41  1  0  0  0
 41 42  2  0  0  0
 23 24  2  0  0  0
 23 25  1  0  0  0
 25 27  1  0  0  0
 27 34  1  0  0  0
 27 28  1  0  0  0
 34 35  1  0  0  0
 28 29  1  0  0  0
 28 32  2  0  0  0
 29 30  1  0  0  0
 30 31  2  0  0  0
 31 32  1  0  0  0
  8  9  1  0  0  0
  3  4  1  0  0  0
 25 26  1  0  0  0
 29 33  1  0  0  0
M  END
> <minimizedAffinity>
-9.49380

$$$$
1BDQ_IM1_B_400


 42 44  0  0  0  0  0  0  0  0999 V2000
  -11.4691   15.9668   27.5492 C   0  0  0  0  0  0  0  0  0  0  0  0
  -10.5048   17.1100   27.7545 C   0  0  0  0  0  0  0  0  0  0  0  0
  -11.3392   18.2290   28.1224 O   0  0  0  0  0  0  0  0  0  0  0  0
  -11.9954   18.3858   27.4256 H   0  0  0  0  0  0  0  0  0  0  0  0
   -9.6860   17.3578   26.4559 C   0  0  0  0  0  0  0  0  0  0  0  0
   -7.5349   17.4071   27.6368 C   0  0  0  0  0  0  0  0  0  0  0  0
   -7.7735   16.3245   28.1689 O   0  0  0  0  0  0  0  0  0  0  0  0
   -8.4049   17.9609   26.8003 N   0  0  0  0  0  0  0  0  0  0  0  0
   -8.1719   18.8254   26.3909 H   0  0  0  0  0  0  0  0  0  0  0  0
   -6.3191   18.0415   27.8951 O   0  0  0  0  0  0  0  0  0  0  0  0
   -5.2293   18.0098   27.0323 C   0  0  0  0  0  0  0  0  0  0  0  0
   -5.1146   16.6558   26.3437 C   0  0  0  0  0  0  0  0  0  0  0  0
   -5.2762   19.1708   26.0545 C   0  0  0  0  0  0  0  0  0  0  0  0
   -3.9674   18.2350   27.8472 C   0  0  0  0  0  0  0  0  0  0  0  0
   -9.4495   16.0466   25.7058 C   0  0  0  0  0  0  0  0  0  0  0  0
   -9.5053   16.2468   24.1941 C   0  0  0  0  0  0  0  0  0  0  0  0
  -10.6675   15.9140   23.4853 C   0  0  0  0  0  0  0  0  0  0  0  0
  -10.6933   16.1002   22.1030 C   0  0  0  0  0  0  0  0  0  0  0  0
   -9.5828   16.6119   21.4245 C   0  0  0  0  0  0  0  0  0  0  0  0
   -8.4379   16.9410   22.1274 C   0  0  0  0  0  0  0  0  0  0  0  0
   -8.3938   16.7608   23.5064 C   0  0  0  0  0  0  0  0  0  0  0  0
  -11.9880   15.2795   28.7515 C   0  0  0  0  0  0  0  0  0  0  0  0
  -10.8148   14.9339   29.6714 C   0  0  0  0  0  0  0  0  0  0  0  0
   -9.9766   14.1004   29.3445 O   0  0  0  0  0  0  0  0  0  0  0  0
  -10.7685   15.5548   30.8408 N   0  0  0  0  0  0  0  0  0  0  0  0
  -11.4684   16.2097   31.0655 H   0  0  0  0  0  0  0  0  0  0  0  0
   -9.7045   15.2905   31.8029 C   0  0  0  0  0  0  0  0  0  0  0  0
  -10.4189   15.2181   33.1529 C   0  0  0  0  0  0  0  0  0  0  0  0
  -11.3309   14.2964   33.3437 N   0  0  0  0  0  0  0  0  0  0  0  0
  -11.8480   14.5149   34.5995 C   0  0  0  0  0  0  0  0  0  0  0  0
  -11.1573   15.6151   35.0961 C   0  0  0  0  0  0  0  0  0  0  0  0
  -10.2364   16.0503   34.1569 N   0  0  0  0  0  0  0  0  0  0  0  0
  -11.5940   13.5877   32.7129 H   0  0  0  0  0  0  0  0  0  0  0  0
   -8.6435   16.4073   31.8203 C   0  0  0  0  0  0  0  0  0  0  0  0
   -9.1309   17.6291   31.0676 C   0  0  0  0  0  0  0  0  0  0  0  0
  -12.7798   14.0395   28.2337 C   0  0  0  0  0  0  0  0  0  0  0  0
  -13.3648   13.1880   29.3477 C   0  0  0  0  0  0  0  0  0  0  0  0
  -13.0856   11.8144   29.3785 C   0  0  0  0  0  0  0  0  0  0  0  0
  -13.5112   11.0491   30.4511 C   0  0  0  0  0  0  0  0  0  0  0  0
  -14.2149   11.6477   31.4873 C   0  0  0  0  0  0  0  0  0  0  0  0
  -14.4923   13.0128   31.4601 C   0  0  0  0  0  0  0  0  0  0  0  0
  -14.0711   13.7930   30.3949 C   0  0  0  0  0  0  0  0  0  0  0  0
 11 12  1  0  0  0
 11 13  1  0  0  0
 11 14  1  0  0  0
 11 10  1  0  0  0
 10  6  1  0  0  0
  6  7  2  0  0  0
  6  8  1  0  0  0
  8  5  1  0  0  0
  5 15  1  0  0  0
  5  2  1  0  0  0
 15 16  1  0  0  0
 16 17  2  0  0  0
 16 21  1  0  0  0
 17 18  1  0  0  0
 18 19  2  0  0  0
 19 20  1  0  0  0
 20 21  2  0  0  0
  2  3  1  0  0  0
  2  1  1  0  0  0
  1 22  1  0  0  0
 22 36  1  0  0  0
 22 23  1  0  0  0
 36 37  1  0  0  0
 37 38  2  0  0  0
 37 42  1  0  0  0
 38 39  1  0  0  0
 39 40  2  0  0  0
 40 41  1  0  0  0
 41 42  2  0  0  0
 23 24  2  0  0  0
 23 25  1  0  0  0
 25 27  1  0  0  0
 27 34  1  0  0  0
 27 28  1  0  0  0
 34 35  1  0  0  0
 28 29  1  0  0  0
 28 32  2  0  0  0
 29 30  1  0  0  0
 30 31  2  0  0  0
 31 32  1  0  0  0
  8  9  1  0  0  0
  3  4  1  0  0  0
 25 26  1  0  0  0
 29 33  1  0  0  0
M  END
> <minimizedAffinity>
-9.16737

$$$$
1BDQ_IM1_B_400


 42 44  0  0  0  0  0  0  0  0999 V2000
   -8.9726   16.6783   28.2680 C   0  0  0  0  0  0  0  0  0  0  0  0
  -10.4393   16.8608   28.5749 C   0  0  0  0  0  0  0  0  0  0  0  0
  -10.4800   17.9425   29.5299 O   0  0  0  0  0  0  0  0  0  0  0  0
   -9.9403   17.7123   30.3023 H   0  0  0  0  0  0  0  0  0  0  0  0
  -11.0387   15.5356   29.1251 C   0  0  0  0  0  0  0  0  0  0  0  0
  -10.8231   14.8489   31.4716 C   0  0  0  0  0  0  0  0  0  0  0  0
  -10.1120   13.8974   31.1541 O   0  0  0  0  0  0  0  0  0  0  0  0
  -11.3000   15.6792   30.5515 N   0  0  0  0  0  0  0  0  0  0  0  0
  -11.8602   16.4321   30.8490 H   0  0  0  0  0  0  0  0  0  0  0  0
  -11.1032   15.0718   32.8204 O   0  0  0  0  0  0  0  0  0  0  0  0
  -10.1668   15.5270   33.7418 C   0  0  0  0  0  0  0  0  0  0  0  0
   -9.2897   16.6170   33.1389 C   0  0  0  0  0  0  0  0  0  0  0  0
  -10.8394   15.9540   35.0346 C   0  0  0  0  0  0  0  0  0  0  0  0
   -9.2735   14.3619   34.1314 C   0  0  0  0  0  0  0  0  0  0  0  0
  -12.3382   15.1860   28.3992 C   0  0  0  0  0  0  0  0  0  0  0  0
  -13.0435   13.9999   29.0506 C   0  0  0  0  0  0  0  0  0  0  0  0
  -12.6028   12.6947   28.7936 C   0  0  0  0  0  0  0  0  0  0  0  0
  -13.2667   11.6259   29.3959 C   0  0  0  0  0  0  0  0  0  0  0  0
  -14.3558   11.8415   30.2460 C   0  0  0  0  0  0  0  0  0  0  0  0
  -14.7871   13.1312   30.4990 C   0  0  0  0  0  0  0  0  0  0  0  0
  -14.1376   14.2095   29.9060 C   0  0  0  0  0  0  0  0  0  0  0  0
   -8.5439   16.8004   26.8579 C   0  0  0  0  0  0  0  0  0  0  0  0
   -7.3788   17.7894   26.7767 C   0  0  0  0  0  0  0  0  0  0  0  0
   -7.3991   18.8458   27.3995 O   0  0  0  0  0  0  0  0  0  0  0  0
   -6.3700   17.4615   25.9832 N   0  0  0  0  0  0  0  0  0  0  0  0
   -6.4006   16.6073   25.4945 H   0  0  0  0  0  0  0  0  0  0  0  0
   -5.2150   18.3367   25.8167 C   0  0  0  0  0  0  0  0  0  0  0  0
   -5.0239   18.4340   24.3028 C   0  0  0  0  0  0  0  0  0  0  0  0
   -5.8907   19.1136   23.5925 N   0  0  0  0  0  0  0  0  0  0  0  0
   -5.5149   18.9683   22.2773 C   0  0  0  0  0  0  0  0  0  0  0  0
   -4.3775   18.1685   22.3052 C   0  0  0  0  0  0  0  0  0  0  0  0
   -4.0704   17.8403   23.6157 N   0  0  0  0  0  0  0  0  0  0  0  0
   -6.6589   19.6266   23.9329 H   0  0  0  0  0  0  0  0  0  0  0  0
   -3.9480   17.7621   26.4783 C   0  0  0  0  0  0  0  0  0  0  0  0
   -3.9296   18.0610   27.9640 C   0  0  0  0  0  0  0  0  0  0  0  0
   -9.8088   17.2372   26.0568 C   0  0  0  0  0  0  0  0  0  0  0  0
   -9.7948   16.7788   24.6083 C   0  0  0  0  0  0  0  0  0  0  0  0
  -10.9255   16.1388   24.0816 C   0  0  0  0  0  0  0  0  0  0  0  0
  -10.9732   15.8239   22.7340 C   0  0  0  0  0  0  0  0  0  0  0  0
   -9.8985   16.1416   21.9146 C   0  0  0  0  0  0  0  0  0  0  0  0
   -8.7743   16.7790   22.4351 C   0  0  0  0  0  0  0  0  0  0  0  0
   -8.7121   17.1032   23.7812 C   0  0  0  0  0  0  0  0  0  0  0  0
 11 12  1  0  0  0
 11 13  1  0  0  0
 11 14  1  0  0  0
 11 10  1  0  0  0
 10  6  1  0  0  0
  6  7  2  0  0  0
  6  8  1  0  0  0
  8  5  1  0  0  0
  5 15  1  0  0  0
  5  2  1  0  0  0
 15 16  1  0  0  0
 16 17  2  0  0  0
 16 21  1  0  0  0
 17 18  1  0  0  0
 18 19  2  0  0  0
 19 20  1  0  0  0
 20 21  2  0  0  0
  2  3  1  0  0  0
  2  1  1  0  0  0
  1 22  1  0  0  0
 22 36  1  0  0  0
 22 23  1  0  0  0
 36 37  1  0  0  0
 37 38  2  0  0  0
 37 42  1  0  0  0
 38 39  1  0  0  0
 39 40  2  0  0  0
 40 41  1  0  0  0
 41 42  2  0  0  0
 23 24  2  0  0  0
 23 25  1  0  0  0
 25 27  1  0  0  0
 27 34  1  0  0  0
 27 28  1  0  0  0
 34 35  1  0  0  0
 28 29  1  0  0  0
 28 32  2  0  0  0
 29 30  1  0  0  0
 30 31  2  0  0  0
 31 32  1  0  0  0
  8  9  1  0  0  0
  3  4  1  0  0  0
 25 26  1  0  0  0
 29 33  1  0  0  0
M  END
> <minimizedAffinity>
-9.04028

$$$$
1BDQ_IM1_B_400


 42 44  0  0  0  0  0  0  0  0999 V2000
   -8.0484   17.0705   28.7500 C   0  0  0  0  0  0  0  0  0  0  0  0
   -9.5472   16.9377   28.8702 C   0  0  0  0  0  0  0  0  0  0  0  0
  -10.0700   18.1287   28.2440 O   0  0  0  0  0  0  0  0  0  0  0  0
   -9.7060   18.9122   28.6850 H   0  0  0  0  0  0  0  0  0  0  0  0
   -9.9533   16.8037   30.3653 C   0  0  0  0  0  0  0  0  0  0  0  0
  -10.9013   14.5702   29.9950 C   0  0  0  0  0  0  0  0  0  0  0  0
   -9.8910   14.2138   29.3917 O   0  0  0  0  0  0  0  0  0  0  0  0
  -10.9993   15.7972   30.4934 N   0  0  0  0  0  0  0  0  0  0  0  0
  -11.8228   16.0399   30.9753 H   0  0  0  0  0  0  0  0  0  0  0  0
  -11.9418   13.6593   30.1823 O   0  0  0  0  0  0  0  0  0  0  0  0
  -13.0481   13.5631   29.3457 C   0  0  0  0  0  0  0  0  0  0  0  0
  -14.3394   13.8160   30.1134 C   0  0  0  0  0  0  0  0  0  0  0  0
  -12.8926   14.4639   28.1330 C   0  0  0  0  0  0  0  0  0  0  0  0
  -13.1006   12.1535   28.7823 C   0  0  0  0  0  0  0  0  0  0  0  0
   -8.7503   16.4034   31.2199 C   0  0  0  0  0  0  0  0  0  0  0  0
   -9.1746   15.9796   32.6231 C   0  0  0  0  0  0  0  0  0  0  0  0
   -9.1783   14.6230   32.9746 C   0  0  0  0  0  0  0  0  0  0  0  0
   -9.5755   14.2589   34.2613 C   0  0  0  0  0  0  0  0  0  0  0  0
   -9.9648   15.2242   35.1950 C   0  0  0  0  0  0  0  0  0  0  0  0
   -9.9584   16.5625   34.8453 C   0  0  0  0  0  0  0  0  0  0  0  0
   -9.5662   16.9441   33.5659 C   0  0  0  0  0  0  0  0  0  0  0  0
   -7.5043   17.6113   27.4856 C   0  0  0  0  0  0  0  0  0  0  0  0
   -7.7643   16.6050   26.3622 C   0  0  0  0  0  0  0  0  0  0  0  0
   -7.4590   15.4236   26.4858 O   0  0  0  0  0  0  0  0  0  0  0  0
   -8.3043   17.0779   25.2488 N   0  0  0  0  0  0  0  0  0  0  0  0
   -8.5245   18.0357   25.1901 H   0  0  0  0  0  0  0  0  0  0  0  0
   -8.5804   16.2121   24.1077 C   0  0  0  0  0  0  0  0  0  0  0  0
   -7.8737   16.8901   22.9334 C   0  0  0  0  0  0  0  0  0  0  0  0
   -7.4780   18.1333   23.0584 N   0  0  0  0  0  0  0  0  0  0  0  0
   -6.9515   18.4981   21.8410 C   0  0  0  0  0  0  0  0  0  0  0  0
   -7.0749   17.3723   21.0339 C   0  0  0  0  0  0  0  0  0  0  0  0
   -7.6624   16.3446   21.7538 N   0  0  0  0  0  0  0  0  0  0  0  0
   -7.5444   18.6950   23.8642 H   0  0  0  0  0  0  0  0  0  0  0  0
  -10.0890   16.0873   23.8221 C   0  0  0  0  0  0  0  0  0  0  0  0
  -10.9053   16.5164   25.0247 C   0  0  0  0  0  0  0  0  0  0  0  0
   -5.9939   17.8959   27.7506 C   0  0  0  0  0  0  0  0  0  0  0  0
   -5.1367   17.8235   26.4982 C   0  0  0  0  0  0  0  0  0  0  0  0
   -5.1372   18.9038   25.6045 C   0  0  0  0  0  0  0  0  0  0  0  0
   -4.2720   18.9034   24.5234 C   0  0  0  0  0  0  0  0  0  0  0  0
   -3.4121   17.8307   24.3306 C   0  0  0  0  0  0  0  0  0  0  0  0
   -3.4083   16.7567   25.2180 C   0  0  0  0  0  0  0  0  0  0  0  0
   -4.2664   16.7431   26.3063 C   0  0  0  0  0  0  0  0  0  0  0  0
 11 12  1  0  0  0
 11 13  1  0  0  0
 11 14  1  0  0  0
 11 10  1  0  0  0
 10  6  1  0  0  0
  6  7  2  0  0  0
  6  8  1  0  0  0
  8  5  1  0  0  0
  5 15  1  0  0  0
  5  2  1  0  0  0
 15 16  1  0  0  0
 16 17  2  0  0  0
 16 21  1  0  0  0
 17 18  1  0  0  0
 18 19  2  0  0  0
 19 20  1  0  0  0
 20 21  2  0  0  0
  2  3  1  0  0  0
  2  1  1  0  0  0
  1 22  1  0  0  0
 22 36  1  0  0  0
 22 23  1  0  0  0
 36 37  1  0  0  0
 37 38  2  0  0  0
 37 42  1  0  0  0
 38 39  1  0  0  0
 39 40  2  0  0  0
 40 41  1  0  0  0
 41 42  2  0  0  0
 23 24  2  0  0  0
 23 25  1  0  0  0
 25 27  1  0  0  0
 27 34  1  0  0  0
 27 28  1  0  0  0
 34 35  1  0  0  0
 28 29  1  0  0  0
 28 32  2  0  0  0
 29 30  1  0  0  0
 30 31  2  0  0  0
 31 32  1  0  0  0
  8  9  1  0  0  0
  3  4  1  0  0  0
 25 26  1  0  0  0
 29 33  1  0  0  0
M  END
> <minimizedAffinity>
-8.73190

$$$$
1BDQ_IM1_B_400


 42 44  0  0  0  0  0  0  0  0999 V2000
   -9.2664   16.5853   27.2402 C   0  0  0  0  0  0  0  0  0  0  0  0
  -10.7631   16.6859   27.4094 C   0  0  0  0  0  0  0  0  0  0  0  0
  -10.9902   18.0433   27.8449 O   0  0  0  0  0  0  0  0  0  0  0  0
  -10.4885   18.2102   28.6581 H   0  0  0  0  0  0  0  0  0  0  0  0
  -11.2575   15.6240   28.4322 C   0  0  0  0  0  0  0  0  0  0  0  0
  -10.3099   15.4647   30.6907 C   0  0  0  0  0  0  0  0  0  0  0  0
   -9.7768   14.3907   30.4186 O   0  0  0  0  0  0  0  0  0  0  0  0
  -11.0317   16.1151   29.7855 N   0  0  0  0  0  0  0  0  0  0  0  0
  -11.4360   16.9751   30.0425 H   0  0  0  0  0  0  0  0  0  0  0  0
  -10.1245   16.0171   31.9587 O   0  0  0  0  0  0  0  0  0  0  0  0
  -10.5561   15.4174   33.1365 C   0  0  0  0  0  0  0  0  0  0  0  0
  -11.9992   14.9448   33.0139 C   0  0  0  0  0  0  0  0  0  0  0  0
   -9.6047   14.3142   33.5652 C   0  0  0  0  0  0  0  0  0  0  0  0
  -10.4883   16.4478   34.2505 C   0  0  0  0  0  0  0  0  0  0  0  0
  -12.7454   15.3328   28.2348 C   0  0  0  0  0  0  0  0  0  0  0  0
  -13.1907   14.1151   29.0392 C   0  0  0  0  0  0  0  0  0  0  0  0
  -14.1655   14.2519   30.0367 C   0  0  0  0  0  0  0  0  0  0  0  0
  -14.5526   13.1257   30.7630 C   0  0  0  0  0  0  0  0  0  0  0  0
  -13.9846   11.8737   30.5076 C   0  0  0  0  0  0  0  0  0  0  0  0
  -13.0239   11.7417   29.5211 C   0  0  0  0  0  0  0  0  0  0  0  0
  -12.6247   12.8546   28.7873 C   0  0  0  0  0  0  0  0  0  0  0  0
   -8.7538   15.9816   25.9913 C   0  0  0  0  0  0  0  0  0  0  0  0
   -7.2755   16.3453   25.8341 C   0  0  0  0  0  0  0  0  0  0  0  0
   -6.4033   15.7305   26.4387 O   0  0  0  0  0  0  0  0  0  0  0  0
   -6.9922   17.3680   25.0411 N   0  0  0  0  0  0  0  0  0  0  0  0
   -7.7255   17.8389   24.5831 H   0  0  0  0  0  0  0  0  0  0  0  0
   -5.6188   17.8124   24.8310 C   0  0  0  0  0  0  0  0  0  0  0  0
   -5.1837   18.3650   26.1887 C   0  0  0  0  0  0  0  0  0  0  0  0
   -4.2231   17.7616   26.8451 N   0  0  0  0  0  0  0  0  0  0  0  0
   -4.0979   18.4221   28.0452 C   0  0  0  0  0  0  0  0  0  0  0  0
   -5.0482   19.4368   28.0084 C   0  0  0  0  0  0  0  0  0  0  0  0
   -5.7325   19.3913   26.8046 N   0  0  0  0  0  0  0  0  0  0  0  0
   -3.6956   16.9886   26.5397 H   0  0  0  0  0  0  0  0  0  0  0  0
   -5.5192   18.9080   23.7525 C   0  0  0  0  0  0  0  0  0  0  0  0
   -6.5972   18.7333   22.7017 C   0  0  0  0  0  0  0  0  0  0  0  0
   -9.6676   16.5150   24.8454 C   0  0  0  0  0  0  0  0  0  0  0  0
   -9.3575   15.9017   23.4904 C   0  0  0  0  0  0  0  0  0  0  0  0
   -9.6781   16.6147   22.3265 C   0  0  0  0  0  0  0  0  0  0  0  0
   -9.2937   16.1235   21.0903 C   0  0  0  0  0  0  0  0  0  0  0  0
   -8.5957   14.9259   21.0124 C   0  0  0  0  0  0  0  0  0  0  0  0
   -8.2744   14.2162   22.1675 C   0  0  0  0  0  0  0  0  0  0  0  0
   -8.6499   14.6957   23.4124 C   0  0  0  0  0  0  0  0  0  0  0  0
 11 12  1  0  0  0
 11 13  1  0  0  0
 11 14  1  0  0  0
 11 10  1  0  0  0
 10  6  1  0  0  0
  6  7  2  0  0  0
  6  8  1  0  0  0
  8  5  1  0  0  0
  5 15  1  0  0  0
  5  2  1  0  0  0
 15 16  1  0  0  0
 16 17  2  0  0  0
 16 21  1  0  0  0
 17 18  1  0  0  0
 18 19  2  0  0  0
 19 20  1  0  0  0
 20 21  2  0  0  0
  2  3  1  0  0  0
  2  1  1  0  0  0
  1 22  1  0  0  0
 22 36  1  0  0  0
 22 23  1  0  0  0
 36 37  1  0  0  0
 37 38  2  0  0  0
 37 42  1  0  0  0
 38 39  1  0  0  0
 39 40  2  0  0  0
 40 41  1  0  0  0
 41 42  2  0  0  0
 23 24  2  0  0  0
 23 25  1  0  0  0
 25 27  1  0  0  0
 27 34  1  0  0  0
 27 28  1  0  0  0
 34 35  1  0  0  0
 28 29  1  0  0  0
 28 32  2  0  0  0
 29 30  1  0  0  0
 30 31  2  0  0  0
 31 32  1  0  0  0
  8  9  1  0  0  0
  3  4  1  0  0  0
 25 26  1  0  0  0
 29 33  1  0  0  0
M  END
> <minimizedAffinity>
-8.70625

$$$$
1BDQ_IM1_B_400


 42 44  0  0  0  0  0  0  0  0999 V2000
   -9.7248   15.1745   28.3599 C   0  0  0  0  0  0  0  0  0  0  0  0
  -11.2181   15.2881   28.5493 C   0  0  0  0  0  0  0  0  0  0  0  0
  -11.5136   16.6774   28.2916 O   0  0  0  0  0  0  0  0  0  0  0  0
  -10.9954   17.2350   28.8929 H   0  0  0  0  0  0  0  0  0  0  0  0
  -11.6106   14.8347   29.9841 C   0  0  0  0  0  0  0  0  0  0  0  0
  -13.7267   13.5992   30.1234 C   0  0  0  0  0  0  0  0  0  0  0  0
  -14.3382   14.6283   30.4043 O   0  0  0  0  0  0  0  0  0  0  0  0
  -12.4173   13.6237   29.9043 N   0  0  0  0  0  0  0  0  0  0  0  0
  -11.9673   12.7785   29.6756 H   0  0  0  0  0  0  0  0  0  0  0  0
  -14.4286   12.3989   30.0041 O   0  0  0  0  0  0  0  0  0  0  0  0
  -14.5638   11.4742   31.0335 C   0  0  0  0  0  0  0  0  0  0  0  0
  -13.6144   10.2982   30.8420 C   0  0  0  0  0  0  0  0  0  0  0  0
  -14.4142   12.1432   32.3885 C   0  0  0  0  0  0  0  0  0  0  0  0
  -15.9865   10.9420   31.0145 C   0  0  0  0  0  0  0  0  0  0  0  0
  -10.3640   14.5648   30.8272 C   0  0  0  0  0  0  0  0  0  0  0  0
  -10.5055   15.1329   32.2363 C   0  0  0  0  0  0  0  0  0  0  0  0
   -9.5297   16.0016   32.7434 C   0  0  0  0  0  0  0  0  0  0  0  0
   -9.6775   16.5039   34.0363 C   0  0  0  0  0  0  0  0  0  0  0  0
  -10.7791   16.1540   34.8234 C   0  0  0  0  0  0  0  0  0  0  0  0
  -11.7414   15.2978   34.3192 C   0  0  0  0  0  0  0  0  0  0  0  0
  -11.6098   14.7861   33.0319 C   0  0  0  0  0  0  0  0  0  0  0  0
   -9.0505   16.2210   27.5615 C   0  0  0  0  0  0  0  0  0  0  0  0
   -8.5331   15.5986   26.2626 C   0  0  0  0  0  0  0  0  0  0  0  0
   -7.8837   14.5581   26.2726 O   0  0  0  0  0  0  0  0  0  0  0  0
   -8.7956   16.2516   25.1404 N   0  0  0  0  0  0  0  0  0  0  0  0
   -9.3123   17.0887   25.1806 H   0  0  0  0  0  0  0  0  0  0  0  0
   -8.3368   15.7591   23.8463 C   0  0  0  0  0  0  0  0  0  0  0  0
   -7.4994   16.9045   23.2761 C   0  0  0  0  0  0  0  0  0  0  0  0
   -6.2664   17.0618   23.6916 N   0  0  0  0  0  0  0  0  0  0  0  0
   -5.7899   18.1952   23.0746 C   0  0  0  0  0  0  0  0  0  0  0  0
   -6.8382   18.6526   22.2835 C   0  0  0  0  0  0  0  0  0  0  0  0
   -7.9274   17.8070   22.4182 N   0  0  0  0  0  0  0  0  0  0  0  0
   -5.7779   16.4833   24.3208 H   0  0  0  0  0  0  0  0  0  0  0  0
   -9.5067   15.4310   22.8992 C   0  0  0  0  0  0  0  0  0  0  0  0
  -10.8190   15.9365   23.4641 C   0  0  0  0  0  0  0  0  0  0  0  0
   -7.9332   16.8109   28.4759 C   0  0  0  0  0  0  0  0  0  0  0  0
   -6.8122   17.4842   27.7023 C   0  0  0  0  0  0  0  0  0  0  0  0
   -6.9213   18.8451   27.3837 C   0  0  0  0  0  0  0  0  0  0  0  0
   -5.8575   19.4998   26.7859 C   0  0  0  0  0  0  0  0  0  0  0  0
   -4.6911   18.8020   26.5035 C   0  0  0  0  0  0  0  0  0  0  0  0
   -4.5794   17.4499   26.8205 C   0  0  0  0  0  0  0  0  0  0  0  0
   -5.6341   16.7809   27.4212 C   0  0  0  0  0  0  0  0  0  0  0  0
 11 12  1  0  0  0
 11 13  1  0  0  0
 11 14  1  0  0  0
 11 10  1  0  0  0
 10  6  1  0  0  0
  6  7  2  0  0  0
  6  8  1  0  0  0
  8  5  1  0  0  0
  5 15  1  0  0  0
  5  2  1  0  0  0
 15 16  1  0  0  0
 16 17  2  0  0  0
 16 21  1  0  0  0
 17 18  1  0  0  0
 18 19  2  0  0  0
 19 20  1  0  0  0
 20 21  2  0  0  0
  2  3  1  0  0  0
  2  1  1  0  0  0
  1 22  1  0  0  0
 22 36  1  0  0  0
 22 23  1  0  0  0
 36 37  1  0  0  0
 37 38  2  0  0  0
 37 42  1  0  0  0
 38 39  1  0  0  0
 39 40  2  0  0  0
 40 41  1  0  0  0
 41 42  2  0  0  0
 23 24  2  0  0  0
 23 25  1  0  0  0
 25 27  1  0  0  0
 27 34  1  0  0  0
 27 28  1  0  0  0
 34 35  1  0  0  0
 28 29  1  0  0  0
 28 32  2  0  0  0
 29 30  1  0  0  0
 30 31  2  0  0  0
 31 32  1  0  0  0
  8  9  1  0  0  0
  3  4  1  0  0  0
 25 26  1  0  0  0
 29 33  1  0  0  0
M  END
> <minimizedAffinity>
-8.63665

$$$$
1BDQ_IM1_B_400


 42 44  0  0  0  0  0  0  0  0999 V2000
  -10.4851   16.7588   27.8464 C   0  0  0  0  0  0  0  0  0  0  0  0
  -10.0636   17.4419   26.5680 C   0  0  0  0  0  0  0  0  0  0  0  0
  -10.9931   16.9605   25.5740 O   0  0  0  0  0  0  0  0  0  0  0  0
  -10.9533   15.9921   25.5362 H   0  0  0  0  0  0  0  0  0  0  0  0
   -8.5834   17.0958   26.2404 C   0  0  0  0  0  0  0  0  0  0  0  0
   -7.9936   16.2370   24.0181 C   0  0  0  0  0  0  0  0  0  0  0  0
   -7.8298   15.1057   24.4710 O   0  0  0  0  0  0  0  0  0  0  0  0
   -8.3593   17.2400   24.8077 N   0  0  0  0  0  0  0  0  0  0  0  0
   -8.4859   18.1288   24.4035 H   0  0  0  0  0  0  0  0  0  0  0  0
   -7.8217   16.4565   22.6507 O   0  0  0  0  0  0  0  0  0  0  0  0
   -8.7404   16.0690   21.6817 C   0  0  0  0  0  0  0  0  0  0  0  0
  -10.1578   16.0666   22.2401 C   0  0  0  0  0  0  0  0  0  0  0  0
   -8.5977   16.9145   20.4283 C   0  0  0  0  0  0  0  0  0  0  0  0
   -8.4029   14.6551   21.2408 C   0  0  0  0  0  0  0  0  0  0  0  0
   -7.6300   18.0163   27.0029 C   0  0  0  0  0  0  0  0  0  0  0  0
   -6.1987   17.8922   26.4887 C   0  0  0  0  0  0  0  0  0  0  0  0
   -5.4189   16.7841   26.8463 C   0  0  0  0  0  0  0  0  0  0  0  0
   -4.1112   16.6950   26.3689 C   0  0  0  0  0  0  0  0  0  0  0  0
   -3.5763   17.6896   25.5442 C   0  0  0  0  0  0  0  0  0  0  0  0
   -4.3492   18.7812   25.1918 C   0  0  0  0  0  0  0  0  0  0  0  0
   -5.6554   18.8872   25.6596 C   0  0  0  0  0  0  0  0  0  0  0  0
  -10.5465   15.2812   27.8494 C   0  0  0  0  0  0  0  0  0  0  0  0
  -11.9537   14.8433   28.2621 C   0  0  0  0  0  0  0  0  0  0  0  0
  -12.9383   15.5123   27.9667 O   0  0  0  0  0  0  0  0  0  0  0  0
  -12.0491   13.7299   28.9735 N   0  0  0  0  0  0  0  0  0  0  0  0
  -11.2308   13.2297   29.1960 H   0  0  0  0  0  0  0  0  0  0  0  0
  -13.3387   13.2279   29.4348 C   0  0  0  0  0  0  0  0  0  0  0  0
  -13.5022   13.8223   30.8342 C   0  0  0  0  0  0  0  0  0  0  0  0
  -12.7436   13.3810   31.8076 N   0  0  0  0  0  0  0  0  0  0  0  0
  -13.1561   14.0313   32.9474 C   0  0  0  0  0  0  0  0  0  0  0  0
  -14.1896   14.8682   32.5406 C   0  0  0  0  0  0  0  0  0  0  0  0
  -14.3943   14.7278   31.1776 N   0  0  0  0  0  0  0  0  0  0  0  0
  -12.0214   12.7157   31.7370 H   0  0  0  0  0  0  0  0  0  0  0  0
  -13.3754   11.6892   29.5014 C   0  0  0  0  0  0  0  0  0  0  0  0
  -14.6773   11.2042   30.1068 C   0  0  0  0  0  0  0  0  0  0  0  0
   -9.4201   14.8028   28.8163 C   0  0  0  0  0  0  0  0  0  0  0  0
   -9.3288   15.6243   30.0911 C   0  0  0  0  0  0  0  0  0  0  0  0
  -10.0760   15.2349   31.2117 C   0  0  0  0  0  0  0  0  0  0  0  0
   -9.9118   15.9015   32.4143 C   0  0  0  0  0  0  0  0  0  0  0  0
   -9.0101   16.9535   32.5004 C   0  0  0  0  0  0  0  0  0  0  0  0
   -8.2651   17.3415   31.3889 C   0  0  0  0  0  0  0  0  0  0  0  0
   -8.4160   16.6829   30.1787 C   0  0  0  0  0  0  0  0  0  0  0  0
 11 12  1  0  0  0
 11 13  1  0  0  0
 11 14  1  0  0  0
 11 10  1  0  0  0
 10  6  1  0  0  0
  6  7  2  0  0  0
  6  8  1  0  0  0
  8  5  1  0  0  0
  5 15  1  0  0  0
  5  2  1  0  0  0
 15 16  1  0  0  0
 16 17  2  0  0  0
 16 21  1  0  0  0
 17 18  1  0  0  0
 18 19  2  0  0  0
 19 20  1  0  0  0
 20 21  2  0  0  0
  2  3  1  0  0  0
  2  1  1  0  0  0
  1 22  1  0  0  0
 22 36  1  0  0  0
 22 23  1  0  0  0
 36 37  1  0  0  0
 37 38  2  0  0  0
 37 42  1  0  0  0
 38 39  1  0  0  0
 39 40  2  0  0  0
 40 41  1  0  0  0
 41 42  2  0  0  0
 23 24  2  0  0  0
 23 25  1  0  0  0
 25 27  1  0  0  0
 27 34  1  0  0  0
 27 28  1  0  0  0
 34 35  1  0  0  0
 28 29  1  0  0  0
 28 32  2  0  0  0
 29 30  1  0  0  0
 30 31  2  0  0  0
 31 32  1  0  0  0
  8  9  1  0  0  0
  3  4  1  0  0  0
 25 26  1  0  0  0
 29 33  1  0  0  0
M  END
> <minimizedAffinity>
-8.61610

$$$$
1BDQ_IM1_B_400


 42 44  0  0  0  0  0  0  0  0999 V2000
  -11.0985   16.3847   27.3909 C   0  0  0  0  0  0  0  0  0  0  0  0
  -12.0745   15.2526   27.6021 C   0  0  0  0  0  0  0  0  0  0  0  0
  -13.3417   15.7747   27.1490 O   0  0  0  0  0  0  0  0  0  0  0  0
  -13.5563   16.5795   27.6462 H   0  0  0  0  0  0  0  0  0  0  0  0
  -12.0865   14.8299   29.0986 C   0  0  0  0  0  0  0  0  0  0  0  0
  -13.9560   13.8763   30.3711 C   0  0  0  0  0  0  0  0  0  0  0  0
  -13.8466   14.7467   31.2327 O   0  0  0  0  0  0  0  0  0  0  0  0
  -13.1487   13.8565   29.3170 N   0  0  0  0  0  0  0  0  0  0  0  0
  -13.2744   13.1460   28.6472 H   0  0  0  0  0  0  0  0  0  0  0  0
  -14.9636   12.9184   30.4924 O   0  0  0  0  0  0  0  0  0  0  0  0
  -14.7769   11.6648   31.0639 C   0  0  0  0  0  0  0  0  0  0  0  0
  -16.0295   10.8084   30.9278 C   0  0  0  0  0  0  0  0  0  0  0  0
  -13.5348   10.9924   30.5060 C   0  0  0  0  0  0  0  0  0  0  0  0
  -14.4898   11.8517   32.5438 C   0  0  0  0  0  0  0  0  0  0  0  0
  -10.7430   14.2206   29.5004 C   0  0  0  0  0  0  0  0  0  0  0  0
  -10.0846   15.0083   30.6294 C   0  0  0  0  0  0  0  0  0  0  0  0
  -10.4008   14.7187   31.9635 C   0  0  0  0  0  0  0  0  0  0  0  0
   -9.7907   15.4558   32.9785 C   0  0  0  0  0  0  0  0  0  0  0  0
   -8.8747   16.4698   32.6813 C   0  0  0  0  0  0  0  0  0  0  0  0
   -8.5634   16.7519   31.3634 C   0  0  0  0  0  0  0  0  0  0  0  0
   -9.1633   16.0275   30.3378 C   0  0  0  0  0  0  0  0  0  0  0  0
  -10.0744   16.2230   26.3363 C   0  0  0  0  0  0  0  0  0  0  0  0
   -8.9551   17.2401   26.5708 C   0  0  0  0  0  0  0  0  0  0  0  0
   -9.1489   18.2559   27.2301 O   0  0  0  0  0  0  0  0  0  0  0  0
   -7.7851   16.9828   26.0051 N   0  0  0  0  0  0  0  0  0  0  0  0
   -7.6773   16.1596   25.4761 H   0  0  0  0  0  0  0  0  0  0  0  0
   -6.6528   17.8913   26.1481 C   0  0  0  0  0  0  0  0  0  0  0  0
   -6.3001   18.2914   24.7151 C   0  0  0  0  0  0  0  0  0  0  0  0
   -7.0149   17.8150   23.7252 N   0  0  0  0  0  0  0  0  0  0  0  0
   -6.4323   18.2764   22.5677 C   0  0  0  0  0  0  0  0  0  0  0  0
   -5.3506   19.0464   22.9810 C   0  0  0  0  0  0  0  0  0  0  0  0
   -5.2842   19.0525   24.3649 N   0  0  0  0  0  0  0  0  0  0  0  0
   -7.8113   17.2406   23.7961 H   0  0  0  0  0  0  0  0  0  0  0  0
   -5.4453   17.2158   26.8257 C   0  0  0  0  0  0  0  0  0  0  0  0
   -4.7142   18.1909   27.7265 C   0  0  0  0  0  0  0  0  0  0  0  0
  -10.8204   16.3969   24.9778 C   0  0  0  0  0  0  0  0  0  0  0  0
  -10.0527   15.8394   23.7911 C   0  0  0  0  0  0  0  0  0  0  0  0
  -10.2383   16.4122   22.5250 C   0  0  0  0  0  0  0  0  0  0  0  0
   -9.4584   15.9951   21.4595 C   0  0  0  0  0  0  0  0  0  0  0  0
   -8.4999   15.0096   21.6526 C   0  0  0  0  0  0  0  0  0  0  0  0
   -8.3122   14.4399   22.9101 C   0  0  0  0  0  0  0  0  0  0  0  0
   -9.0829   14.8481   23.9872 C   0  0  0  0  0  0  0  0  0  0  0  0
 11 12  1  0  0  0
 11 13  1  0  0  0
 11 14  1  0  0  0
 11 10  1  0  0  0
 10  6  1  0  0  0
  6  7  2  0  0  0
  6  8  1  0  0  0
  8  5  1  0  0  0
  5 15  1  0  0  0
  5  2  1  0  0  0
 15 16  1  0  0  0
 16 17  2  0  0  0
 16 21  1  0  0  0
 17 18  1  0  0  0
 18 19  2  0  0  0
 19 20  1  0  0  0
 20 21  2  0  0  0
  2  3  1  0  0  0
  2  1  1  0  0  0
  1 22  1  0  0  0
 22 36  1  0  0  0
 22 23  1  0  0  0
 36 37  1  0  0  0
 37 38  2  0  0  0
 37 42  1  0  0  0
 38 39  1  0  0  0
 39 40  2  0  0  0
 40 41  1  0  0  0
 41 42  2  0  0  0
 23 24  2  0  0  0
 23 25  1  0  0  0
 25 27  1  0  0  0
 27 34  1  0  0  0
 27 28  1  0  0  0
 34 35  1  0  0  0
 28 29  1  0  0  0
 28 32  2  0  0  0
 29 30  1  0  0  0
 30 31  2  0  0  0
 31 32  1  0  0  0
  8  9  1  0  0  0
  3  4  1  0  0  0
 25 26  1  0  0  0
 29 33  1  0  0  0
M  END
> <minimizedAffinity>
-8.42183

$$$$
1BDQ_IM1_B_400


 42 44  0  0  0  0  0  0  0  0999 V2000
  -10.5734   14.6317   28.8867 C   0  0  0  0  0  0  0  0  0  0  0  0
  -10.4556   16.0802   28.4783 C   0  0  0  0  0  0  0  0  0  0  0  0
  -11.6447   16.3376   27.7013 O   0  0  0  0  0  0  0  0  0  0  0  0
  -11.6839   15.7186   26.9555 H   0  0  0  0  0  0  0  0  0  0  0  0
   -9.1411   16.3042   27.6781 C   0  0  0  0  0  0  0  0  0  0  0  0
   -9.0446   15.8593   25.2663 C   0  0  0  0  0  0  0  0  0  0  0  0
   -8.3473   14.8637   25.4523 O   0  0  0  0  0  0  0  0  0  0  0  0
   -9.4658   16.5959   26.2877 N   0  0  0  0  0  0  0  0  0  0  0  0
  -10.0276   17.3812   26.0954 H   0  0  0  0  0  0  0  0  0  0  0  0
   -9.4206   16.1961   23.9653 O   0  0  0  0  0  0  0  0  0  0  0  0
   -8.5321   16.2839   22.8995 C   0  0  0  0  0  0  0  0  0  0  0  0
   -7.3174   17.1269   23.2666 C   0  0  0  0  0  0  0  0  0  0  0  0
   -8.1629   14.9038   22.3844 C   0  0  0  0  0  0  0  0  0  0  0  0
   -9.2428   16.9579   21.7385 C   0  0  0  0  0  0  0  0  0  0  0  0
   -8.3370   17.4622   28.2698 C   0  0  0  0  0  0  0  0  0  0  0  0
   -7.0271   17.6782   27.5176 C   0  0  0  0  0  0  0  0  0  0  0  0
   -6.1761   16.5936   27.2660 C   0  0  0  0  0  0  0  0  0  0  0  0
   -4.9811   16.8162   26.5815 C   0  0  0  0  0  0  0  0  0  0  0  0
   -4.6279   18.0976   26.1471 C   0  0  0  0  0  0  0  0  0  0  0  0
   -5.4710   19.1657   26.3957 C   0  0  0  0  0  0  0  0  0  0  0  0
   -6.6665   18.9625   27.0780 C   0  0  0  0  0  0  0  0  0  0  0  0
  -10.9598   14.3397   30.2840 C   0  0  0  0  0  0  0  0  0  0  0  0
  -12.4206   13.8841   30.3106 C   0  0  0  0  0  0  0  0  0  0  0  0
  -13.2696   14.4355   29.6182 O   0  0  0  0  0  0  0  0  0  0  0  0
  -12.7228   12.8918   31.1346 N   0  0  0  0  0  0  0  0  0  0  0  0
  -12.0105   12.4850   31.6791 H   0  0  0  0  0  0  0  0  0  0  0  0
  -14.0865   12.3880   31.2538 C   0  0  0  0  0  0  0  0  0  0  0  0
  -14.2165   11.9796   32.7216 C   0  0  0  0  0  0  0  0  0  0  0  0
  -13.9680   10.7389   33.0632 N   0  0  0  0  0  0  0  0  0  0  0  0
  -14.2339   10.6457   34.4096 C   0  0  0  0  0  0  0  0  0  0  0  0
  -14.6398   11.9190   34.7942 C   0  0  0  0  0  0  0  0  0  0  0  0
  -14.6154   12.7669   33.6987 N   0  0  0  0  0  0  0  0  0  0  0  0
  -13.6533   10.0166   32.4729 H   0  0  0  0  0  0  0  0  0  0  0  0
  -14.3422   11.1757   30.3383 C   0  0  0  0  0  0  0  0  0  0  0  0
  -15.8101   10.7987   30.3360 C   0  0  0  0  0  0  0  0  0  0  0  0
  -10.6836   15.6450   31.0917 C   0  0  0  0  0  0  0  0  0  0  0  0
  -10.6373   15.4272   32.5946 C   0  0  0  0  0  0  0  0  0  0  0  0
   -9.3994   15.2170   33.2184 C   0  0  0  0  0  0  0  0  0  0  0  0
   -9.3288   15.1371   34.5990 C   0  0  0  0  0  0  0  0  0  0  0  0
  -10.4860   15.2625   35.3556 C   0  0  0  0  0  0  0  0  0  0  0  0
  -11.7172   15.4731   34.7384 C   0  0  0  0  0  0  0  0  0  0  0  0
  -11.8043   15.5579   33.3578 C   0  0  0  0  0  0  0  0  0  0  0  0
 11 12  1  0  0  0
 11 13  1  0  0  0
 11 14  1  0  0  0
 11 10  1  0  0  0
 10  6  1  0  0  0
  6  7  2  0  0  0
  6  8  1  0  0  0
  8  5  1  0  0  0
  5 15  1  0  0  0
  5  2  1  0  0  0
 15 16  1  0  0  0
 16 17  2  0  0  0
 16 21  1  0  0  0
 17 18  1  0  0  0
 18 19  2  0  0  0
 19 20  1  0  0  0
 20 21  2  0  0  0
  2  3  1  0  0  0
  2  1  1  0  0  0
  1 22  1  0  0  0
 22 36  1  0  0  0
 22 23  1  0  0  0
 36 37  1  0  0  0
 37 38  2  0  0  0
 37 42  1  0  0  0
 38 39  1  0  0  0
 39 40  2  0  0  0
 40 41  1  0  0  0
 41 42  2  0  0  0
 23 24  2  0  0  0
 23 25  1  0  0  0
 25 27  1  0  0  0
 27 34  1  0  0  0
 27 28  1  0  0  0
 34 35  1  0  0  0
 28 29  1  0  0  0
 28 32  2  0  0  0
 29 30  1  0  0  0
 30 31  2  0  0  0
 31 32  1  0  0  0
  8  9  1  0  0  0
  3  4  1  0  0  0
 25 26  1  0  0  0
 29 33  1  0  0  0
M  END
> <minimizedAffinity>
-8.24180

$$$$
