5U0D_7R7_A_302


 18 19  0  0  0  0  0  0  0  0999 V2000
   -4.5456    1.3952   14.7752 C   0  0  0  0  0  0  0  0  0  0  0  0
   -5.1405    1.5612   16.0178 C   0  0  0  0  0  0  0  0  0  0  0  0
   -5.7786    3.7631   15.3823 C   0  0  0  0  0  0  0  0  0  0  0  0
   -4.5523    2.3897   13.8187 C   0  0  0  0  0  0  0  0  0  0  0  0
   -5.7556    2.7560   16.3224 C   0  0  0  0  0  0  0  0  0  0  0  0
   -5.1885    3.5685   14.1460 C   0  0  0  0  0  0  0  0  0  0  0  0
   -4.8192    1.9314   11.3062 C   0  0  0  0  0  0  0  0  0  0  0  0
   -3.6329    0.1967   11.4823 C   0  0  0  0  0  0  0  0  0  0  0  0
   -3.8903    2.1722   12.4680 C   0  0  0  0  0  0  0  0  0  0  0  0
   -4.5600    0.7322   10.7495 N   0  0  0  0  0  0  0  0  0  0  0  0
   -5.6769    2.7477   10.9639 O   0  0  0  0  0  0  0  0  0  0  0  0
   -3.0995    0.9942   12.4301 O   0  0  0  0  0  0  0  0  0  0  0  0
   -2.9592   -1.2926   11.3651 S   0  0  0  0  0  0  0  0  0  0  0  0
   -4.9859    0.3429    9.9518 H   0  0  0  0  0  0  0  0  0  0  0  0
   -6.2843    2.0768   18.5387 C   0  0  0  0  0  0  0  0  0  0  0  0
   -6.3978    3.0915   17.5285 O   0  0  0  0  0  0  0  0  0  0  0  0
   -4.6334    5.8079   13.6622 C   0  0  0  0  0  0  0  0  0  0  0  0
   -5.1804    4.5642   13.2187 O   0  0  0  0  0  0  0  0  0  0  0  0
 15 16  1  0  0  0
 16  5  1  0  0  0
 11  7  2  0  0  0
  5  2  2  0  0  0
  5  3  1  0  0  0
  2  1  1  0  0  0
  3  6  2  0  0  0
  1  4  2  0  0  0
  6  4  1  0  0  0
  6 18  1  0  0  0
  7  9  1  0  0  0
  7 10  1  0  0  0
  4  9  1  0  0  0
 18 17  1  0  0  0
  9 12  1  0  0  0
 10  8  1  0  0  0
  8 12  1  0  0  0
  8 13  2  0  0  0
 10 14  1  0  0  0
M  END
> <minimizedAffinity>
-6.85509

$$$$
5U0D_7R7_A_302


 18 19  0  0  0  0  0  0  0  0999 V2000
   -3.7788    1.9630   14.2933 C   0  0  0  0  0  0  0  0  0  0  0  0
   -4.0336    1.2058   15.4278 C   0  0  0  0  0  0  0  0  0  0  0  0
   -5.8855    2.6175   15.9151 C   0  0  0  0  0  0  0  0  0  0  0  0
   -4.5572    3.0474   13.9437 C   0  0  0  0  0  0  0  0  0  0  0  0
   -5.0913    1.5409   16.2450 C   0  0  0  0  0  0  0  0  0  0  0  0
   -5.6177    3.3495   14.7718 C   0  0  0  0  0  0  0  0  0  0  0  0
   -4.4993    3.1607   11.3790 C   0  0  0  0  0  0  0  0  0  0  0  0
   -2.4368    3.5973   11.4309 C   0  0  0  0  0  0  0  0  0  0  0  0
   -4.2482    3.8539   12.6932 C   0  0  0  0  0  0  0  0  0  0  0  0
   -3.3565    3.0904   10.6690 N   0  0  0  0  0  0  0  0  0  0  0  0
   -5.6104    2.7355   11.0564 O   0  0  0  0  0  0  0  0  0  0  0  0
   -2.8696    4.1694   12.5729 O   0  0  0  0  0  0  0  0  0  0  0  0
   -0.8244    3.7126   11.1615 S   0  0  0  0  0  0  0  0  0  0  0  0
   -3.2429    2.7291    9.7602 H   0  0  0  0  0  0  0  0  0  0  0  0
   -6.0895    1.7648   18.3913 C   0  0  0  0  0  0  0  0  0  0  0  0
   -5.4840    0.8882   17.4279 O   0  0  0  0  0  0  0  0  0  0  0  0
   -6.1986    5.5754   15.2864 C   0  0  0  0  0  0  0  0  0  0  0  0
   -6.3774    4.4312   14.4490 O   0  0  0  0  0  0  0  0  0  0  0  0
 15 16  1  0  0  0
 16  5  1  0  0  0
 11  7  2  0  0  0
  5  2  2  0  0  0
  5  3  1  0  0  0
  2  1  1  0  0  0
  3  6  2  0  0  0
  1  4  2  0  0  0
  6  4  1  0  0  0
  6 18  1  0  0  0
  7  9  1  0  0  0
  7 10  1  0  0  0
  4  9  1  0  0  0
 18 17  1  0  0  0
  9 12  1  0  0  0
 10  8  1  0  0  0
  8 12  1  0  0  0
  8 13  2  0  0  0
 10 14  1  0  0  0
M  END
> <minimizedAffinity>
-6.84036

$$$$
5U0D_7R7_A_302


 18 19  0  0  0  0  0  0  0  0999 V2000
   -4.9137    3.5243   14.6520 C   0  0  0  0  0  0  0  0  0  0  0  0
   -5.2373    2.8942   15.8452 C   0  0  0  0  0  0  0  0  0  0  0  0
   -4.2576    0.8911   15.0160 C   0  0  0  0  0  0  0  0  0  0  0  0
   -4.2633    2.8677   13.6274 C   0  0  0  0  0  0  0  0  0  0  0  0
   -4.9107    1.5674   16.0234 C   0  0  0  0  0  0  0  0  0  0  0  0
   -3.9353    1.5453   13.8401 C   0  0  0  0  0  0  0  0  0  0  0  0
   -2.6258    4.3542   12.3224 C   0  0  0  0  0  0  0  0  0  0  0  0
   -4.1497    5.7767   12.0032 C   0  0  0  0  0  0  0  0  0  0  0  0
   -3.9246    3.5903   12.3339 C   0  0  0  0  0  0  0  0  0  0  0  0
   -2.8596    5.6575   12.0736 N   0  0  0  0  0  0  0  0  0  0  0  0
   -1.5371    3.8124   12.5236 O   0  0  0  0  0  0  0  0  0  0  0  0
   -4.8482    4.6233   12.0268 O   0  0  0  0  0  0  0  0  0  0  0  0
   -5.0495    7.1323   11.8072 S   0  0  0  0  0  0  0  0  0  0  0  0
   -2.1902    6.3715   11.9673 H   0  0  0  0  0  0  0  0  0  0  0  0
   -6.0597    1.4034   18.0984 C   0  0  0  0  0  0  0  0  0  0  0  0
   -5.1683    0.7799   17.1605 O   0  0  0  0  0  0  0  0  0  0  0  0
   -4.1009   -0.1226   12.1825 C   0  0  0  0  0  0  0  0  0  0  0  0
   -3.3149    0.8820   12.8270 O   0  0  0  0  0  0  0  0  0  0  0  0
 15 16  1  0  0  0
 16  5  1  0  0  0
 11  7  2  0  0  0
  5  2  2  0  0  0
  5  3  1  0  0  0
  2  1  1  0  0  0
  3  6  2  0  0  0
  1  4  2  0  0  0
  6  4  1  0  0  0
  6 18  1  0  0  0
  7  9  1  0  0  0
  7 10  1  0  0  0
  4  9  1  0  0  0
 18 17  1  0  0  0
  9 12  1  0  0  0
 10  8  1  0  0  0
  8 12  1  0  0  0
  8 13  2  0  0  0
 10 14  1  0  0  0
M  END
> <minimizedAffinity>
-6.68719

$$$$
5U0D_7R7_A_302


 18 19  0  0  0  0  0  0  0  0999 V2000
   -4.9031    3.5896   14.9114 C   0  0  0  0  0  0  0  0  0  0  0  0
   -5.2719    2.7662   15.9656 C   0  0  0  0  0  0  0  0  0  0  0  0
   -4.2936    0.9218   14.8251 C   0  0  0  0  0  0  0  0  0  0  0  0
   -4.2301    3.1111   13.8060 C   0  0  0  0  0  0  0  0  0  0  0  0
   -4.9685    1.4229   15.9168 C   0  0  0  0  0  0  0  0  0  0  0  0
   -3.9264    1.7661   13.7921 C   0  0  0  0  0  0  0  0  0  0  0  0
   -4.1567    3.5576   11.2784 C   0  0  0  0  0  0  0  0  0  0  0  0
   -2.0616    3.7830   11.3649 C   0  0  0  0  0  0  0  0  0  0  0  0
   -3.8421    4.0429   12.6698 C   0  0  0  0  0  0  0  0  0  0  0  0
   -3.0247    3.4725   10.5528 N   0  0  0  0  0  0  0  0  0  0  0  0
   -5.3030    3.2877   10.9145 O   0  0  0  0  0  0  0  0  0  0  0  0
   -2.4392    4.2375   12.5772 O   0  0  0  0  0  0  0  0  0  0  0  0
   -0.4451    3.7775   11.0955 S   0  0  0  0  0  0  0  0  0  0  0  0
   -2.9448    3.2258    9.6031 H   0  0  0  0  0  0  0  0  0  0  0  0
   -6.0539    0.9627   17.9816 C   0  0  0  0  0  0  0  0  0  0  0  0
   -5.2715    0.4531   16.8901 O   0  0  0  0  0  0  0  0  0  0  0  0
   -3.8513    0.0961   12.1299 C   0  0  0  0  0  0  0  0  0  0  0  0
   -3.2837    1.2793   12.6959 O   0  0  0  0  0  0  0  0  0  0  0  0
 15 16  1  0  0  0
 16  5  1  0  0  0
 11  7  2  0  0  0
  5  2  2  0  0  0
  5  3  1  0  0  0
  2  1  1  0  0  0
  3  6  2  0  0  0
  1  4  2  0  0  0
  6  4  1  0  0  0
  6 18  1  0  0  0
  7  9  1  0  0  0
  7 10  1  0  0  0
  4  9  1  0  0  0
 18 17  1  0  0  0
  9 12  1  0  0  0
 10  8  1  0  0  0
  8 12  1  0  0  0
  8 13  2  0  0  0
 10 14  1  0  0  0
M  END
> <minimizedAffinity>
-6.65057

$$$$
5U0D_7R7_A_302


 18 19  0  0  0  0  0  0  0  0999 V2000
   -3.3318    3.4261   14.6330 C   0  0  0  0  0  0  0  0  0  0  0  0
   -3.6586    2.8213   15.8383 C   0  0  0  0  0  0  0  0  0  0  0  0
   -4.4815    0.9412   14.6350 C   0  0  0  0  0  0  0  0  0  0  0  0
   -3.5648    2.8156   13.4177 C   0  0  0  0  0  0  0  0  0  0  0  0
   -4.2421    1.5729   15.8359 C   0  0  0  0  0  0  0  0  0  0  0  0
   -4.1354    1.5605   13.4471 C   0  0  0  0  0  0  0  0  0  0  0  0
   -1.7820    3.2971   11.6334 C   0  0  0  0  0  0  0  0  0  0  0  0
   -1.9871    5.3693   11.9678 C   0  0  0  0  0  0  0  0  0  0  0  0
   -3.1935    3.5084   12.1170 C   0  0  0  0  0  0  0  0  0  0  0  0
   -1.1463    4.4809   11.5349 N   0  0  0  0  0  0  0  0  0  0  0  0
   -1.3277    2.1786   11.3848 O   0  0  0  0  0  0  0  0  0  0  0  0
   -3.2346    4.9234   12.2202 O   0  0  0  0  0  0  0  0  0  0  0  0
   -1.7677    6.9801   12.1748 S   0  0  0  0  0  0  0  0  0  0  0  0
   -0.2330    4.6391   11.2032 H   0  0  0  0  0  0  0  0  0  0  0  0
   -5.9515    1.1605   17.4363 C   0  0  0  0  0  0  0  0  0  0  0  0
   -4.6390    0.8244   16.9593 O   0  0  0  0  0  0  0  0  0  0  0  0
   -3.8336   -0.3468   12.0950 C   0  0  0  0  0  0  0  0  0  0  0  0
   -4.3911    0.9595   12.2534 O   0  0  0  0  0  0  0  0  0  0  0  0
 15 16  1  0  0  0
 16  5  1  0  0  0
 11  7  2  0  0  0
  5  2  2  0  0  0
  5  3  1  0  0  0
  2  1  1  0  0  0
  3  6  2  0  0  0
  1  4  2  0  0  0
  6  4  1  0  0  0
  6 18  1  0  0  0
  7  9  1  0  0  0
  7 10  1  0  0  0
  4  9  1  0  0  0
 18 17  1  0  0  0
  9 12  1  0  0  0
 10  8  1  0  0  0
  8 12  1  0  0  0
  8 13  2  0  0  0
 10 14  1  0  0  0
M  END
> <minimizedAffinity>
-6.62546

$$$$
5U0D_7R7_A_302


 18 19  0  0  0  0  0  0  0  0999 V2000
   -4.6557    2.4588   13.1613 C   0  0  0  0  0  0  0  0  0  0  0  0
   -4.5398    2.5662   11.7827 C   0  0  0  0  0  0  0  0  0  0  0  0
   -3.7836    4.8056   12.0529 C   0  0  0  0  0  0  0  0  0  0  0  0
   -4.3426    3.5021   14.0084 C   0  0  0  0  0  0  0  0  0  0  0  0
   -4.1058    3.7504   11.2275 C   0  0  0  0  0  0  0  0  0  0  0  0
   -3.8963    4.6693   13.4253 C   0  0  0  0  0  0  0  0  0  0  0  0
   -3.9277    2.0771   16.1038 C   0  0  0  0  0  0  0  0  0  0  0  0
   -5.9938    2.0719   16.5265 C   0  0  0  0  0  0  0  0  0  0  0  0
   -4.4818    3.3482   15.5139 C   0  0  0  0  0  0  0  0  0  0  0  0
   -4.9060    1.3948   16.7303 N   0  0  0  0  0  0  0  0  0  0  0  0
   -2.7425    1.7571   15.9927 O   0  0  0  0  0  0  0  0  0  0  0  0
   -5.8357    3.2726   15.9330 O   0  0  0  0  0  0  0  0  0  0  0  0
   -7.5306    1.7079   16.9638 S   0  0  0  0  0  0  0  0  0  0  0  0
   -4.8144    0.5560   17.2377 H   0  0  0  0  0  0  0  0  0  0  0  0
   -3.0434    5.1239    9.6034 C   0  0  0  0  0  0  0  0  0  0  0  0
   -3.9379    4.0295    9.8588 O   0  0  0  0  0  0  0  0  0  0  0  0
   -3.4815    6.9826   13.6080 C   0  0  0  0  0  0  0  0  0  0  0  0
   -3.6074    5.7121   14.2502 O   0  0  0  0  0  0  0  0  0  0  0  0
 15 16  1  0  0  0
 16  5  1  0  0  0
 11  7  2  0  0  0
  5  2  2  0  0  0
  5  3  1  0  0  0
  2  1  1  0  0  0
  3  6  2  0  0  0
  1  4  2  0  0  0
  6  4  1  0  0  0
  6 18  1  0  0  0
  7  9  1  0  0  0
  7 10  1  0  0  0
  4  9  1  0  0  0
 18 17  1  0  0  0
  9 12  1  0  0  0
 10  8  1  0  0  0
  8 12  1  0  0  0
  8 13  2  0  0  0
 10 14  1  0  0  0
M  END
> <minimizedAffinity>
-6.42765

$$$$
5U0D_7R7_A_302


 18 19  0  0  0  0  0  0  0  0999 V2000
   -4.2346    1.4488   12.9862 C   0  0  0  0  0  0  0  0  0  0  0  0
   -4.1491    0.1368   12.5425 C   0  0  0  0  0  0  0  0  0  0  0  0
   -3.0897    0.9108   10.5580 C   0  0  0  0  0  0  0  0  0  0  0  0
   -3.7571    2.5084   12.2426 C   0  0  0  0  0  0  0  0  0  0  0  0
   -3.5772   -0.1303   11.3176 C   0  0  0  0  0  0  0  0  0  0  0  0
   -3.1762    2.2093   11.0282 C   0  0  0  0  0  0  0  0  0  0  0  0
   -2.9993    4.2771   13.9430 C   0  0  0  0  0  0  0  0  0  0  0  0
   -4.9927    4.5398   14.5792 C   0  0  0  0  0  0  0  0  0  0  0  0
   -3.8679    3.9329   12.7607 C   0  0  0  0  0  0  0  0  0  0  0  0
   -3.7653    4.6724   14.9784 N   0  0  0  0  0  0  0  0  0  0  0  0
   -1.7705    4.1858   13.9108 O   0  0  0  0  0  0  0  0  0  0  0  0
   -5.1565    4.2280   13.2773 O   0  0  0  0  0  0  0  0  0  0  0  0
   -6.3800    4.7783   15.4183 S   0  0  0  0  0  0  0  0  0  0  0  0
   -3.4575    4.9950   15.8561 H   0  0  0  0  0  0  0  0  0  0  0  0
   -2.7215   -2.3365   11.5487 C   0  0  0  0  0  0  0  0  0  0  0  0
   -3.4167   -1.3930   10.7182 O   0  0  0  0  0  0  0  0  0  0  0  0
   -1.3024    3.3943   10.2269 C   0  0  0  0  0  0  0  0  0  0  0  0
   -2.7233    3.2491   10.2763 O   0  0  0  0  0  0  0  0  0  0  0  0
 15 16  1  0  0  0
 16  5  1  0  0  0
 11  7  2  0  0  0
  5  2  2  0  0  0
  5  3  1  0  0  0
  2  1  1  0  0  0
  3  6  2  0  0  0
  1  4  2  0  0  0
  6  4  1  0  0  0
  6 18  1  0  0  0
  7  9  1  0  0  0
  7 10  1  0  0  0
  4  9  1  0  0  0
 18 17  1  0  0  0
  9 12  1  0  0  0
 10  8  1  0  0  0
  8 12  1  0  0  0
  8 13  2  0  0  0
 10 14  1  0  0  0
M  END
> <minimizedAffinity>
-6.32652

$$$$
5U0D_7R7_A_302


 18 19  0  0  0  0  0  0  0  0999 V2000
   -3.9061    2.7731   12.8133 C   0  0  0  0  0  0  0  0  0  0  0  0
   -4.0517    1.6669   11.9884 C   0  0  0  0  0  0  0  0  0  0  0  0
   -4.1858    0.2843   13.9198 C   0  0  0  0  0  0  0  0  0  0  0  0
   -3.8983    2.6677   14.1891 C   0  0  0  0  0  0  0  0  0  0  0  0
   -4.1868    0.4150   12.5481 C   0  0  0  0  0  0  0  0  0  0  0  0
   -4.0510    1.4045   14.7208 C   0  0  0  0  0  0  0  0  0  0  0  0
   -4.8341    4.9297   14.9644 C   0  0  0  0  0  0  0  0  0  0  0  0
   -3.0666    5.8926   14.3348 C   0  0  0  0  0  0  0  0  0  0  0  0
   -3.7367    3.9017   15.0613 C   0  0  0  0  0  0  0  0  0  0  0  0
   -4.3261    6.1097   14.5587 N   0  0  0  0  0  0  0  0  0  0  0  0
   -6.0102    4.6696   15.2261 O   0  0  0  0  0  0  0  0  0  0  0  0
   -2.6052    4.6800   14.7031 O   0  0  0  0  0  0  0  0  0  0  0  0
   -1.9348    6.9173   13.7395 S   0  0  0  0  0  0  0  0  0  0  0  0
   -4.8101    6.9605   14.4538 H   0  0  0  0  0  0  0  0  0  0  0  0
   -3.0954   -1.3589   11.4013 C   0  0  0  0  0  0  0  0  0  0  0  0
   -4.3375   -0.8044   11.8626 O   0  0  0  0  0  0  0  0  0  0  0  0
   -5.2991    1.2445   16.7142 C   0  0  0  0  0  0  0  0  0  0  0  0
   -4.0211    1.2865   16.0760 O   0  0  0  0  0  0  0  0  0  0  0  0
 15 16  1  0  0  0
 16  5  1  0  0  0
 11  7  2  0  0  0
  5  2  2  0  0  0
  5  3  1  0  0  0
  2  1  1  0  0  0
  3  6  2  0  0  0
  1  4  2  0  0  0
  6  4  1  0  0  0
  6 18  1  0  0  0
  7  9  1  0  0  0
  7 10  1  0  0  0
  4  9  1  0  0  0
 18 17  1  0  0  0
  9 12  1  0  0  0
 10  8  1  0  0  0
  8 12  1  0  0  0
  8 13  2  0  0  0
 10 14  1  0  0  0
M  END
> <minimizedAffinity>
-6.28557

$$$$
5U0D_7R7_A_302


 18 19  0  0  0  0  0  0  0  0999 V2000
   -3.0646    2.9753   15.1500 C   0  0  0  0  0  0  0  0  0  0  0  0
   -3.4535    2.0628   16.1205 C   0  0  0  0  0  0  0  0  0  0  0  0
   -5.7153    2.7204   15.7866 C   0  0  0  0  0  0  0  0  0  0  0  0
   -3.9739    3.7696   14.4820 C   0  0  0  0  0  0  0  0  0  0  0  0
   -4.7877    1.9407   16.4425 C   0  0  0  0  0  0  0  0  0  0  0  0
   -5.3032    3.6144   14.8142 C   0  0  0  0  0  0  0  0  0  0  0  0
   -2.1090    4.5671   12.9072 C   0  0  0  0  0  0  0  0  0  0  0  0
   -2.1532    6.4774   13.7996 C   0  0  0  0  0  0  0  0  0  0  0  0
   -3.5113    4.7583   13.4246 C   0  0  0  0  0  0  0  0  0  0  0  0
   -1.3762    5.6731   13.1418 N   0  0  0  0  0  0  0  0  0  0  0  0
   -1.7409    3.5251   12.3614 O   0  0  0  0  0  0  0  0  0  0  0  0
   -3.4396    6.0886   13.9140 O   0  0  0  0  0  0  0  0  0  0  0  0
   -1.8089    7.9443   14.4440 S   0  0  0  0  0  0  0  0  0  0  0  0
   -0.4442    5.8369   12.8703 H   0  0  0  0  0  0  0  0  0  0  0  0
   -6.7551    1.2862   17.6063 C   0  0  0  0  0  0  0  0  0  0  0  0
   -5.3494    1.0754   17.3992 O   0  0  0  0  0  0  0  0  0  0  0  0
   -6.6765    5.5266   14.9354 C   0  0  0  0  0  0  0  0  0  0  0  0
   -6.2058    4.4096   14.1783 O   0  0  0  0  0  0  0  0  0  0  0  0
 15 16  1  0  0  0
 16  5  1  0  0  0
 11  7  2  0  0  0
  5  2  2  0  0  0
  5  3  1  0  0  0
  2  1  1  0  0  0
  3  6  2  0  0  0
  1  4  2  0  0  0
  6  4  1  0  0  0
  6 18  1  0  0  0
  7  9  1  0  0  0
  7 10  1  0  0  0
  4  9  1  0  0  0
 18 17  1  0  0  0
  9 12  1  0  0  0
 10  8  1  0  0  0
  8 12  1  0  0  0
  8 13  2  0  0  0
 10 14  1  0  0  0
M  END
> <minimizedAffinity>
-6.15603

$$$$
5U0D_7R7_A_302


 18 19  0  0  0  0  0  0  0  0999 V2000
   -4.3938    2.1109   10.9477 C   0  0  0  0  0  0  0  0  0  0  0  0
   -4.4562    0.7618   10.6291 C   0  0  0  0  0  0  0  0  0  0  0  0
   -3.9778    0.2363   12.8994 C   0  0  0  0  0  0  0  0  0  0  0  0
   -4.1283    2.5519   12.2280 C   0  0  0  0  0  0  0  0  0  0  0  0
   -4.2411   -0.1793   11.6124 C   0  0  0  0  0  0  0  0  0  0  0  0
   -3.9327    1.5875   13.1940 C   0  0  0  0  0  0  0  0  0  0  0  0
   -3.0245    4.4625   13.5413 C   0  0  0  0  0  0  0  0  0  0  0  0
   -4.8896    4.9856   14.3751 C   0  0  0  0  0  0  0  0  0  0  0  0
   -4.0677    4.0380   12.5402 C   0  0  0  0  0  0  0  0  0  0  0  0
   -3.6131    5.0622   14.5944 N   0  0  0  0  0  0  0  0  0  0  0  0
   -1.8209    4.2589   13.3702 O   0  0  0  0  0  0  0  0  0  0  0  0
   -5.2503    4.5143   13.1640 O   0  0  0  0  0  0  0  0  0  0  0  0
   -6.1299    5.4589   15.3360 S   0  0  0  0  0  0  0  0  0  0  0  0
   -3.1671    5.4733   15.3698 H   0  0  0  0  0  0  0  0  0  0  0  0
   -2.9532   -2.1675   11.4091 C   0  0  0  0  0  0  0  0  0  0  0  0
   -4.2619   -1.5780   11.4613 O   0  0  0  0  0  0  0  0  0  0  0  0
   -4.3328    1.3218   15.5019 C   0  0  0  0  0  0  0  0  0  0  0  0
   -3.6469    2.0116   14.4550 O   0  0  0  0  0  0  0  0  0  0  0  0
 15 16  1  0  0  0
 16  5  1  0  0  0
 11  7  2  0  0  0
  5  2  2  0  0  0
  5  3  1  0  0  0
  2  1  1  0  0  0
  3  6  2  0  0  0
  1  4  2  0  0  0
  6  4  1  0  0  0
  6 18  1  0  0  0
  7  9  1  0  0  0
  7 10  1  0  0  0
  4  9  1  0  0  0
 18 17  1  0  0  0
  9 12  1  0  0  0
 10  8  1  0  0  0
  8 12  1  0  0  0
  8 13  2  0  0  0
 10 14  1  0  0  0
M  END
> <minimizedAffinity>
-6.14894

$$$$
