3BE9_P04_A_501


 30 34  0  0  0  0  0  0  0  0999 V2000
   19.8693    9.6668   20.4731 N   0  0  0  0  0  0  0  0  0  0  0  0
   20.0180   10.0509   19.1788 C   0  0  0  0  0  0  0  0  0  0  0  0
   20.9871    9.2494   18.5499 C   0  0  0  0  0  0  0  0  0  0  0  0
   21.4214    8.3224   19.5764 C   0  0  0  0  0  0  0  0  0  0  0  0
   20.7198    8.6291   20.7071 N   0  0  0  0  0  0  0  0  0  0  0  0
   22.3106    7.3113   19.6153 N   0  0  0  0  0  0  0  0  0  0  0  0
   22.4660    6.6619   20.7694 C   0  0  0  0  0  0  0  0  0  0  0  0
   21.7895    6.9621   21.8756 N   0  0  0  0  0  0  0  0  0  0  0  0
   20.9111    7.9580   21.8226 C   0  0  0  0  0  0  0  0  0  0  0  0
   23.3347    5.6220   20.9163 N   0  0  0  0  0  0  0  0  0  0  0  0
   24.1028    4.9896   19.9865 C   0  0  0  0  0  0  0  0  0  0  0  0
   24.1666    5.3556   18.6413 C   0  0  0  0  0  0  0  0  0  0  0  0
   24.9600    4.6796   17.7157 C   0  0  0  0  0  0  0  0  0  0  0  0
   25.7094    3.5977   18.1710 C   0  0  0  0  0  0  0  0  0  0  0  0
   25.6720    3.2046   19.5090 C   0  0  0  0  0  0  0  0  0  0  0  0
   24.8688    3.9044   20.4079 C   0  0  0  0  0  0  0  0  0  0  0  0
   25.0493    4.9903   16.3942 N   0  0  0  0  0  0  0  0  0  0  0  0
   24.9270    6.1589   15.7263 C   0  0  0  0  0  0  0  0  0  0  0  0
   24.9501    6.2158   14.5023 O   0  0  0  0  0  0  0  0  0  0  0  0
   24.7591    7.4726   16.4766 C   0  0  0  0  0  0  0  0  0  0  0  0
   23.2639    7.7911   16.5690 C   0  0  0  0  0  0  0  0  0  0  0  0
   22.9474    9.2230   16.9990 C   0  0  0  0  0  0  0  0  0  0  0  0
   21.4364    9.4279   17.1188 C   0  0  0  0  0  0  0  0  0  0  0  0
   23.4198    5.2755   21.8339 H   0  0  0  0  0  0  0  0  0  0  0  0
   25.2388    4.2174   15.8146 H   0  0  0  0  0  0  0  0  0  0  0  0
   20.1856    8.3058   22.9119 N   0  0  0  0  0  0  0  0  0  0  0  0
   19.4111    8.9072   22.8242 H   0  0  0  0  0  0  0  0  0  0  0  0
   20.5681    7.7761   24.2201 C   0  0  0  0  0  0  0  0  0  0  0  0
   21.0717    8.9142   25.1125 C   0  0  0  0  0  0  0  0  0  0  0  0
   19.6600    8.3451   25.3136 C   0  0  0  0  0  0  0  0  0  0  0  0
  2  1  2  0  0  0
  1  5  1  0  0  0
  3  2  1  0  0  0
 23  3  1  0  0  0
  3  4  2  0  0  0
  4  6  1  0  0  0
  4  5  1  0  0  0
  5  9  1  0  0  0
  6  7  2  0  0  0
  7 10  1  0  0  0
  7  8  1  0  0  0
  9  8  2  0  0  0
  9 26  1  0  0  0
 26 28  1  0  0  0
 28 29  1  0  0  0
 28 30  1  0  0  0
 29 30  1  0  0  0
 11 10  1  0  0  0
 12 11  2  0  0  0
 11 16  1  0  0  0
 13 12  1  0  0  0
 17 13  1  0  0  0
 13 14  2  0  0  0
 14 15  1  0  0  0
 15 16  2  0  0  0
 18 17  1  0  0  0
 19 18  2  0  0  0
 18 20  1  0  0  0
 20 21  1  0  0  0
 21 22  1  0  0  0
 22 23  1  0  0  0
 26 27  1  0  0  0
 10 24  1  0  0  0
 17 25  1  0  0  0
M  END
> <minimizedAffinity>
-12.45903

$$$$
3BE9_P04_A_501


 30 34  0  0  0  0  0  0  0  0999 V2000
   25.2596    1.8933   20.5120 N   0  0  0  0  0  0  0  0  0  0  0  0
   24.4412    2.4467   21.4441 C   0  0  0  0  0  0  0  0  0  0  0  0
   23.8799    3.6348   20.9436 C   0  0  0  0  0  0  0  0  0  0  0  0
   24.4217    3.7631   19.6050 C   0  0  0  0  0  0  0  0  0  0  0  0
   25.2467    2.6927   19.4093 N   0  0  0  0  0  0  0  0  0  0  0  0
   24.2762    4.6635   18.6138 N   0  0  0  0  0  0  0  0  0  0  0  0
   24.9583    4.4644   17.4856 C   0  0  0  0  0  0  0  0  0  0  0  0
   25.7689    3.4265   17.2933 N   0  0  0  0  0  0  0  0  0  0  0  0
   25.8994    2.5421   18.2767 C   0  0  0  0  0  0  0  0  0  0  0  0
   24.8799    5.3109   16.4203 N   0  0  0  0  0  0  0  0  0  0  0  0
   24.0861    6.4008   16.2293 C   0  0  0  0  0  0  0  0  0  0  0  0
   23.1889    6.8938   17.1779 C   0  0  0  0  0  0  0  0  0  0  0  0
   22.3865    8.0095   16.9443 C   0  0  0  0  0  0  0  0  0  0  0  0
   22.4980    8.6416   15.7084 C   0  0  0  0  0  0  0  0  0  0  0  0
   23.3854    8.1781   14.7369 C   0  0  0  0  0  0  0  0  0  0  0  0
   24.1741    7.0604   15.0049 C   0  0  0  0  0  0  0  0  0  0  0  0
   21.4910    8.5226   17.8306 N   0  0  0  0  0  0  0  0  0  0  0  0
   21.4613    8.5432   19.1817 C   0  0  0  0  0  0  0  0  0  0  0  0
   20.5021    8.9816   19.8061 O   0  0  0  0  0  0  0  0  0  0  0  0
   22.6365    8.0210   19.9961 C   0  0  0  0  0  0  0  0  0  0  0  0
   22.3540    6.5649   20.3772 C   0  0  0  0  0  0  0  0  0  0  0  0
   23.2746    6.0044   21.4606 C   0  0  0  0  0  0  0  0  0  0  0  0
   22.9552    4.5332   21.7307 C   0  0  0  0  0  0  0  0  0  0  0  0
   25.4896    5.1029   15.6758 H   0  0  0  0  0  0  0  0  0  0  0  0
   20.7182    8.9623   17.4078 H   0  0  0  0  0  0  0  0  0  0  0  0
   26.7022    1.4603   18.1390 N   0  0  0  0  0  0  0  0  0  0  0  0
   27.5151    1.3692   18.6868 H   0  0  0  0  0  0  0  0  0  0  0  0
   26.3453    0.4292   17.1654 C   0  0  0  0  0  0  0  0  0  0  0  0
   25.9806   -0.8673   17.8945 C   0  0  0  0  0  0  0  0  0  0  0  0
   24.8750    0.0317   17.3225 C   0  0  0  0  0  0  0  0  0  0  0  0
  2  1  2  0  0  0
  1  5  1  0  0  0
  3  2  1  0  0  0
 23  3  1  0  0  0
  3  4  2  0  0  0
  4  6  1  0  0  0
  4  5  1  0  0  0
  5  9  1  0  0  0
  6  7  2  0  0  0
  7 10  1  0  0  0
  7  8  1  0  0  0
  9  8  2  0  0  0
  9 26  1  0  0  0
 26 28  1  0  0  0
 28 29  1  0  0  0
 28 30  1  0  0  0
 29 30  1  0  0  0
 11 10  1  0  0  0
 12 11  2  0  0  0
 11 16  1  0  0  0
 13 12  1  0  0  0
 17 13  1  0  0  0
 13 14  2  0  0  0
 14 15  1  0  0  0
 15 16  2  0  0  0
 18 17  1  0  0  0
 19 18  2  0  0  0
 18 20  1  0  0  0
 20 21  1  0  0  0
 21 22  1  0  0  0
 22 23  1  0  0  0
 26 27  1  0  0  0
 10 24  1  0  0  0
 17 25  1  0  0  0
M  END
> <minimizedAffinity>
-11.25597

$$$$
3BE9_P04_A_501


 30 34  0  0  0  0  0  0  0  0999 V2000
   21.6947    5.8396   23.8956 N   0  0  0  0  0  0  0  0  0  0  0  0
   22.6236    4.8666   23.7071 C   0  0  0  0  0  0  0  0  0  0  0  0
   23.1204    4.9272   22.3931 C   0  0  0  0  0  0  0  0  0  0  0  0
   22.4168    6.0387   21.7838 C   0  0  0  0  0  0  0  0  0  0  0  0
   21.5720    6.5385   22.7331 N   0  0  0  0  0  0  0  0  0  0  0  0
   22.4397    6.6117   20.5649 N   0  0  0  0  0  0  0  0  0  0  0  0
   21.6224    7.6420   20.3450 C   0  0  0  0  0  0  0  0  0  0  0  0
   20.7922    8.1277   21.2650 N   0  0  0  0  0  0  0  0  0  0  0  0
   20.7833    7.5572   22.4653 C   0  0  0  0  0  0  0  0  0  0  0  0
   21.5693    8.2959   19.1504 N   0  0  0  0  0  0  0  0  0  0  0  0
   22.3351    8.1384   18.0354 C   0  0  0  0  0  0  0  0  0  0  0  0
   23.3441    7.1830   17.9053 C   0  0  0  0  0  0  0  0  0  0  0  0
   24.1133    7.0555   16.7497 C   0  0  0  0  0  0  0  0  0  0  0  0
   23.8503    7.9268   15.6957 C   0  0  0  0  0  0  0  0  0  0  0  0
   22.8482    8.8928   15.7894 C   0  0  0  0  0  0  0  0  0  0  0  0
   22.0969    8.9913   16.9594 C   0  0  0  0  0  0  0  0  0  0  0  0
   25.1129    6.1489   16.5771 N   0  0  0  0  0  0  0  0  0  0  0  0
   25.3103    4.9092   17.0779 C   0  0  0  0  0  0  0  0  0  0  0  0
   26.3403    4.2785   16.8702 O   0  0  0  0  0  0  0  0  0  0  0  0
   24.2444    4.2322   17.9281 C   0  0  0  0  0  0  0  0  0  0  0  0
   24.5694    4.4822   19.4036 C   0  0  0  0  0  0  0  0  0  0  0  0
   23.7895    3.6035   20.3809 C   0  0  0  0  0  0  0  0  0  0  0  0
   24.1374    3.9650   21.8258 C   0  0  0  0  0  0  0  0  0  0  0  0
   20.8714    8.9871   19.0834 H   0  0  0  0  0  0  0  0  0  0  0  0
   25.8279    6.4536   15.9728 H   0  0  0  0  0  0  0  0  0  0  0  0
   19.9677    8.0111   23.4464 N   0  0  0  0  0  0  0  0  0  0  0  0
   19.1431    7.5242   23.6748 H   0  0  0  0  0  0  0  0  0  0  0  0
   20.3284    9.2343   24.1621 C   0  0  0  0  0  0  0  0  0  0  0  0
   20.6733    8.9007   25.6165 C   0  0  0  0  0  0  0  0  0  0  0  0
   21.7933    9.1824   24.6047 C   0  0  0  0  0  0  0  0  0  0  0  0
  2  1  2  0  0  0
  1  5  1  0  0  0
  3  2  1  0  0  0
 23  3  1  0  0  0
  3  4  2  0  0  0
  4  6  1  0  0  0
  4  5  1  0  0  0
  5  9  1  0  0  0
  6  7  2  0  0  0
  7 10  1  0  0  0
  7  8  1  0  0  0
  9  8  2  0  0  0
  9 26  1  0  0  0
 26 28  1  0  0  0
 28 29  1  0  0  0
 28 30  1  0  0  0
 29 30  1  0  0  0
 11 10  1  0  0  0
 12 11  2  0  0  0
 11 16  1  0  0  0
 13 12  1  0  0  0
 17 13  1  0  0  0
 13 14  2  0  0  0
 14 15  1  0  0  0
 15 16  2  0  0  0
 18 17  1  0  0  0
 19 18  2  0  0  0
 18 20  1  0  0  0
 20 21  1  0  0  0
 21 22  1  0  0  0
 22 23  1  0  0  0
 26 27  1  0  0  0
 10 24  1  0  0  0
 17 25  1  0  0  0
M  END
> <minimizedAffinity>
-10.01568

$$$$
3BE9_P04_A_501


 30 34  0  0  0  0  0  0  0  0999 V2000
   23.4351    3.3744   19.1872 N   0  0  0  0  0  0  0  0  0  0  0  0
   22.8869    2.3162   19.8387 C   0  0  0  0  0  0  0  0  0  0  0  0
   22.2276    2.7580   20.9995 C   0  0  0  0  0  0  0  0  0  0  0  0
   22.4111    4.1961   21.0028 C   0  0  0  0  0  0  0  0  0  0  0  0
   23.1488    4.5020   19.8952 N   0  0  0  0  0  0  0  0  0  0  0  0
   22.0259    5.1913   21.8247 N   0  0  0  0  0  0  0  0  0  0  0  0
   22.3956    6.4343   21.5145 C   0  0  0  0  0  0  0  0  0  0  0  0
   23.1206    6.7361   20.4399 N   0  0  0  0  0  0  0  0  0  0  0  0
   23.4895    5.7459   19.6340 C   0  0  0  0  0  0  0  0  0  0  0  0
   22.0559    7.5134   22.2746 N   0  0  0  0  0  0  0  0  0  0  0  0
   21.2499    7.5896   23.3696 C   0  0  0  0  0  0  0  0  0  0  0  0
   20.6291    6.4904   23.9647 C   0  0  0  0  0  0  0  0  0  0  0  0
   19.8041    6.6076   25.0823 C   0  0  0  0  0  0  0  0  0  0  0  0
   19.6025    7.8809   25.6092 C   0  0  0  0  0  0  0  0  0  0  0  0
   20.2083    9.0022   25.0419 C   0  0  0  0  0  0  0  0  0  0  0  0
   21.0287    8.8481   23.9256 C   0  0  0  0  0  0  0  0  0  0  0  0
   19.1693    5.5706   25.6925 N   0  0  0  0  0  0  0  0  0  0  0  0
   19.4855    4.2630   25.8226 C   0  0  0  0  0  0  0  0  0  0  0  0
   18.7216    3.4558   26.3391 O   0  0  0  0  0  0  0  0  0  0  0  0
   20.8247    3.7314   25.3316 C   0  0  0  0  0  0  0  0  0  0  0  0
   20.6352    3.1679   23.9202 C   0  0  0  0  0  0  0  0  0  0  0  0
   21.7965    2.3093   23.4206 C   0  0  0  0  0  0  0  0  0  0  0  0
   21.5428    1.8421   21.9864 C   0  0  0  0  0  0  0  0  0  0  0  0
   22.4535    8.3674   21.9886 H   0  0  0  0  0  0  0  0  0  0  0  0
   18.3184    5.8198   26.1203 H   0  0  0  0  0  0  0  0  0  0  0  0
   24.2203    5.9895   18.5203 N   0  0  0  0  0  0  0  0  0  0  0  0
   24.8184    5.2981   18.1549 H   0  0  0  0  0  0  0  0  0  0  0  0
   24.1092    7.2934   17.8677 C   0  0  0  0  0  0  0  0  0  0  0  0
   25.3935    7.5941   17.0895 C   0  0  0  0  0  0  0  0  0  0  0  0
   24.1322    7.1329   16.3452 C   0  0  0  0  0  0  0  0  0  0  0  0
  2  1  2  0  0  0
  1  5  1  0  0  0
  3  2  1  0  0  0
 23  3  1  0  0  0
  3  4  2  0  0  0
  4  6  1  0  0  0
  4  5  1  0  0  0
  5  9  1  0  0  0
  6  7  2  0  0  0
  7 10  1  0  0  0
  7  8  1  0  0  0
  9  8  2  0  0  0
  9 26  1  0  0  0
 26 28  1  0  0  0
 28 29  1  0  0  0
 28 30  1  0  0  0
 29 30  1  0  0  0
 11 10  1  0  0  0
 12 11  2  0  0  0
 11 16  1  0  0  0
 13 12  1  0  0  0
 17 13  1  0  0  0
 13 14  2  0  0  0
 14 15  1  0  0  0
 15 16  2  0  0  0
 18 17  1  0  0  0
 19 18  2  0  0  0
 18 20  1  0  0  0
 20 21  1  0  0  0
 21 22  1  0  0  0
 22 23  1  0  0  0
 26 27  1  0  0  0
 10 24  1  0  0  0
 17 25  1  0  0  0
M  END
> <minimizedAffinity>
-9.67908

$$$$
3BE9_P04_A_501


 30 34  0  0  0  0  0  0  0  0999 V2000
   21.4433    4.0129   24.3496 N   0  0  0  0  0  0  0  0  0  0  0  0
   21.8241    2.7379   24.0770 C   0  0  0  0  0  0  0  0  0  0  0  0
   22.4435    2.6827   22.8159 C   0  0  0  0  0  0  0  0  0  0  0  0
   22.4194    4.0495   22.3331 C   0  0  0  0  0  0  0  0  0  0  0  0
   21.8006    4.7963   23.2944 N   0  0  0  0  0  0  0  0  0  0  0  0
   22.8521    4.6588   21.2124 N   0  0  0  0  0  0  0  0  0  0  0  0
   22.6443    5.9707   21.0961 C   0  0  0  0  0  0  0  0  0  0  0  0
   22.0352    6.7011   22.0273 N   0  0  0  0  0  0  0  0  0  0  0  0
   21.6182    6.0891   23.1308 C   0  0  0  0  0  0  0  0  0  0  0  0
   23.0455    6.6846   20.0067 N   0  0  0  0  0  0  0  0  0  0  0  0
   23.7748    6.2905   18.9264 C   0  0  0  0  0  0  0  0  0  0  0  0
   24.2271    4.9867   18.7185 C   0  0  0  0  0  0  0  0  0  0  0  0
   24.9782    4.6212   17.6025 C   0  0  0  0  0  0  0  0  0  0  0  0
   25.2805    5.6114   16.6711 C   0  0  0  0  0  0  0  0  0  0  0  0
   24.8436    6.9248   16.8449 C   0  0  0  0  0  0  0  0  0  0  0  0
   24.0928    7.2549   17.9720 C   0  0  0  0  0  0  0  0  0  0  0  0
   25.4502    3.3686   17.3590 N   0  0  0  0  0  0  0  0  0  0  0  0
   24.9837    2.1434   17.6872 C   0  0  0  0  0  0  0  0  0  0  0  0
   25.6155    1.1202   17.4504 O   0  0  0  0  0  0  0  0  0  0  0  0
   23.6326    1.9795   18.3690 C   0  0  0  0  0  0  0  0  0  0  0  0
   23.8591    1.8959   19.8814 C   0  0  0  0  0  0  0  0  0  0  0  0
   22.6491    1.4066   20.6762 C   0  0  0  0  0  0  0  0  0  0  0  0
   22.9514    1.4123   22.1755 C   0  0  0  0  0  0  0  0  0  0  0  0
   22.7655    7.6284   19.9997 H   0  0  0  0  0  0  0  0  0  0  0  0
   26.2907    3.3515   16.8466 H   0  0  0  0  0  0  0  0  0  0  0  0
   20.9997    6.7788   24.1187 N   0  0  0  0  0  0  0  0  0  0  0  0
   20.8154    6.3509   24.9860 H   0  0  0  0  0  0  0  0  0  0  0  0
   20.6093    8.1676   23.8797 C   0  0  0  0  0  0  0  0  0  0  0  0
   20.0040    8.7621   25.1547 C   0  0  0  0  0  0  0  0  0  0  0  0
   21.4423    9.1141   24.7485 C   0  0  0  0  0  0  0  0  0  0  0  0
  2  1  2  0  0  0
  1  5  1  0  0  0
  3  2  1  0  0  0
 23  3  1  0  0  0
  3  4  2  0  0  0
  4  6  1  0  0  0
  4  5  1  0  0  0
  5  9  1  0  0  0
  6  7  2  0  0  0
  7 10  1  0  0  0
  7  8  1  0  0  0
  9  8  2  0  0  0
  9 26  1  0  0  0
 26 28  1  0  0  0
 28 29  1  0  0  0
 28 30  1  0  0  0
 29 30  1  0  0  0
 11 10  1  0  0  0
 12 11  2  0  0  0
 11 16  1  0  0  0
 13 12  1  0  0  0
 17 13  1  0  0  0
 13 14  2  0  0  0
 14 15  1  0  0  0
 15 16  2  0  0  0
 18 17  1  0  0  0
 19 18  2  0  0  0
 18 20  1  0  0  0
 20 21  1  0  0  0
 21 22  1  0  0  0
 22 23  1  0  0  0
 26 27  1  0  0  0
 10 24  1  0  0  0
 17 25  1  0  0  0
M  END
> <minimizedAffinity>
-9.52521

$$$$
3BE9_P04_A_501


 30 34  0  0  0  0  0  0  0  0999 V2000
   25.2776    1.7099   20.0297 N   0  0  0  0  0  0  0  0  0  0  0  0
   24.6101    1.9429   21.1895 C   0  0  0  0  0  0  0  0  0  0  0  0
   23.9704    3.1937   21.1306 C   0  0  0  0  0  0  0  0  0  0  0  0
   24.2971    3.7134   19.8173 C   0  0  0  0  0  0  0  0  0  0  0  0
   25.0886    2.7811   19.2100 N   0  0  0  0  0  0  0  0  0  0  0  0
   23.9938    4.8443   19.1512 N   0  0  0  0  0  0  0  0  0  0  0  0
   24.4938    4.9987   17.9249 C   0  0  0  0  0  0  0  0  0  0  0  0
   25.2715    4.0958   17.3320 N   0  0  0  0  0  0  0  0  0  0  0  0
   25.5587    2.9818   17.9975 C   0  0  0  0  0  0  0  0  0  0  0  0
   24.2457    6.1016   17.1635 N   0  0  0  0  0  0  0  0  0  0  0  0
   23.4249    7.1610   17.4050 C   0  0  0  0  0  0  0  0  0  0  0  0
   22.6826    7.3276   18.5750 C   0  0  0  0  0  0  0  0  0  0  0  0
   21.8465    8.4232   18.7845 C   0  0  0  0  0  0  0  0  0  0  0  0
   21.7608    9.3768   17.7733 C   0  0  0  0  0  0  0  0  0  0  0  0
   22.4897    9.2443   16.5912 C   0  0  0  0  0  0  0  0  0  0  0  0
   23.3177    8.1367   16.4158 C   0  0  0  0  0  0  0  0  0  0  0  0
   21.0960    8.6264   19.9009 N   0  0  0  0  0  0  0  0  0  0  0  0
   21.2761    8.2715   21.1925 C   0  0  0  0  0  0  0  0  0  0  0  0
   20.4226    8.4721   22.0489 O   0  0  0  0  0  0  0  0  0  0  0  0
   22.5668    7.6036   21.6456 C   0  0  0  0  0  0  0  0  0  0  0  0
   22.3563    6.0867   21.6400 C   0  0  0  0  0  0  0  0  0  0  0  0
   23.4374    5.2952   22.3750 C   0  0  0  0  0  0  0  0  0  0  0  0
   23.1732    3.7926   22.2653 C   0  0  0  0  0  0  0  0  0  0  0  0
   24.7339    6.1378   16.3093 H   0  0  0  0  0  0  0  0  0  0  0  0
   20.2642    9.1268   19.7369 H   0  0  0  0  0  0  0  0  0  0  0  0
   26.3373    2.0214   17.4451 N   0  0  0  0  0  0  0  0  0  0  0  0
   25.9415    1.1742   17.1372 H   0  0  0  0  0  0  0  0  0  0  0  0
   27.7740    2.2596   17.3123 C   0  0  0  0  0  0  0  0  0  0  0  0
   28.3587    1.3211   16.2527 C   0  0  0  0  0  0  0  0  0  0  0  0
   28.0999    2.7966   15.9160 C   0  0  0  0  0  0  0  0  0  0  0  0
  2  1  2  0  0  0
  1  5  1  0  0  0
  3  2  1  0  0  0
 23  3  1  0  0  0
  3  4  2  0  0  0
  4  6  1  0  0  0
  4  5  1  0  0  0
  5  9  1  0  0  0
  6  7  2  0  0  0
  7 10  1  0  0  0
  7  8  1  0  0  0
  9  8  2  0  0  0
  9 26  1  0  0  0
 26 28  1  0  0  0
 28 29  1  0  0  0
 28 30  1  0  0  0
 29 30  1  0  0  0
 11 10  1  0  0  0
 12 11  2  0  0  0
 11 16  1  0  0  0
 13 12  1  0  0  0
 17 13  1  0  0  0
 13 14  2  0  0  0
 14 15  1  0  0  0
 15 16  2  0  0  0
 18 17  1  0  0  0
 19 18  2  0  0  0
 18 20  1  0  0  0
 20 21  1  0  0  0
 21 22  1  0  0  0
 22 23  1  0  0  0
 26 27  1  0  0  0
 10 24  1  0  0  0
 17 25  1  0  0  0
M  END
> <minimizedAffinity>
-9.50516

$$$$
