3WZ8_IXV_A_401


 36 39  0  0  0  0  0  0  0  0999 V2000
   23.3781    5.4341   57.7301 C   0  0  0  0  0  0  0  0  0  0  0  0
   23.0622    6.3682   56.4646 S   0  0  0  0  0  0  0  0  0  0  0  0
   24.4162    5.9980   58.4691 C   0  0  0  0  0  0  0  0  0  0  0  0
   24.8496    7.2042   57.9039 C   0  0  0  0  0  0  0  0  0  0  0  0
   24.1395    7.5197   56.7547 C   0  0  0  0  0  0  0  0  0  0  0  0
   25.9155    8.0848   58.4307 C   0  0  0  0  0  0  0  0  0  0  0  0
   25.6352    9.4281   58.6250 C   0  0  0  0  0  0  0  0  0  0  0  0
   26.6127   10.2831   59.1110 C   0  0  0  0  0  0  0  0  0  0  0  0
   27.8739    9.7977   59.4116 C   0  0  0  0  0  0  0  0  0  0  0  0
   28.1563    8.4534   59.2192 C   0  0  0  0  0  0  0  0  0  0  0  0
   27.1796    7.5956   58.7271 C   0  0  0  0  0  0  0  0  0  0  0  0
   23.3304    3.0501   56.1594 O   0  0  0  0  0  0  0  0  0  0  0  0
   22.8776    3.0488   57.2821 C   0  0  0  0  0  0  0  0  0  0  0  0
   22.6772    4.2304   57.9560 N   0  0  0  0  0  0  0  0  0  0  0  0
   21.9853    4.2372   58.6564 H   0  0  0  0  0  0  0  0  0  0  0  0
   22.4958    1.7635   57.9843 C   0  0  0  0  0  0  0  0  0  0  0  0
   21.0391    1.3931   57.7623 C   0  0  0  0  0  0  0  0  0  0  0  0
   20.3403    1.2532   59.0441 N   0  0  0  0  0  0  0  0  0  0  0  0
   19.8159    2.0229   59.3632 H   0  0  0  0  0  0  0  0  0  0  0  0
   20.3632    0.0976   59.8546 C   0  0  0  0  0  0  0  0  0  0  0  0
   20.8568   -1.1125   59.3839 C   0  0  0  0  0  0  0  0  0  0  0  0
   20.8618   -2.2210   60.2155 C   0  0  0  0  0  0  0  0  0  0  0  0
   20.3779   -2.1230   61.5100 C   0  0  0  0  0  0  0  0  0  0  0  0
   19.8909   -0.9141   61.9786 C   0  0  0  0  0  0  0  0  0  0  0  0
   19.8845    0.1954   61.1507 C   0  0  0  0  0  0  0  0  0  0  0  0
   24.9801    5.4209   59.7114 C   0  0  0  0  0  0  0  0  0  0  0  0
   24.7000    5.8894   60.7897 O   0  0  0  0  0  0  0  0  0  0  0  0
   25.8384    4.3365   59.6219 N   0  0  0  0  0  0  0  0  0  0  0  0
   26.2018    4.1071   58.7361 H   0  0  0  0  0  0  0  0  0  0  0  0
   26.2421    3.5029   60.7737 C   0  0  0  0  0  0  0  0  0  0  0  0
   25.3037    2.3569   61.0667 C   0  0  0  0  0  0  0  0  0  0  0  0
   24.0351    2.5797   61.5667 C   0  0  0  0  0  0  0  0  0  0  0  0
   23.1996    1.5012   61.8250 C   0  0  0  0  0  0  0  0  0  0  0  0
   23.6254    0.2046   61.5826 C   0  0  0  0  0  0  0  0  0  0  0  0
   24.8996   -0.0191   61.0830 C   0  0  0  0  0  0  0  0  0  0  0  0
   25.7317    1.0591   60.8271 C   0  0  0  0  0  0  0  0  0  0  0  0
 12 13  2  0  0  0
 24 25  2  0  0  0
 24 23  1  0  0  0
 25 20  1  0  0  0
  2  5  1  0  0  0
  2  1  1  0  0  0
  5  4  2  0  0  0
 17 18  1  0  0  0
 17 16  1  0  0  0
 23 22  2  0  0  0
 13 16  1  0  0  0
 13 14  1  0  0  0
 20 18  1  0  0  0
 20 21  2  0  0  0
  1 14  1  0  0  0
  1  3  2  0  0  0
  4  3  1  0  0  0
  4  6  1  0  0  0
 22 21  1  0  0  0
  3 26  1  0  0  0
  6  7  2  0  0  0
  6 11  1  0  0  0
  7  8  1  0  0  0
 11 10  2  0  0  0
  8  9  2  0  0  0
 10  9  1  0  0  0
 28 26  1  0  0  0
 28 30  1  0  0  0
 26 27  2  0  0  0
 30 31  1  0  0  0
 32 31  2  0  0  0
 32 33  1  0  0  0
 31 36  1  0  0  0
 33 34  2  0  0  0
 36 35  2  0  0  0
 34 35  1  0  0  0
 18 19  1  0  0  0
 14 15  1  0  0  0
 28 29  1  0  0  0
M  END
> <minimizedAffinity>
-9.67888

$$$$
3WZ8_IXV_A_401


 36 39  0  0  0  0  0  0  0  0999 V2000
   23.8824    3.0027   59.0955 C   0  0  0  0  0  0  0  0  0  0  0  0
   22.9216    2.3949   57.9635 S   0  0  0  0  0  0  0  0  0  0  0  0
   24.0553    4.3664   58.8671 C   0  0  0  0  0  0  0  0  0  0  0  0
   23.3309    4.7931   57.7466 C   0  0  0  0  0  0  0  0  0  0  0  0
   22.6369    3.7488   57.1531 C   0  0  0  0  0  0  0  0  0  0  0  0
   23.2617    6.1751   57.2231 C   0  0  0  0  0  0  0  0  0  0  0  0
   22.0293    6.6836   56.8442 C   0  0  0  0  0  0  0  0  0  0  0  0
   21.9290    7.9727   56.3432 C   0  0  0  0  0  0  0  0  0  0  0  0
   23.0599    8.7624   56.2248 C   0  0  0  0  0  0  0  0  0  0  0  0
   24.2941    8.2561   56.6046 C   0  0  0  0  0  0  0  0  0  0  0  0
   24.3978    6.9623   57.1021 C   0  0  0  0  0  0  0  0  0  0  0  0
   23.2950    2.9402   61.8890 O   0  0  0  0  0  0  0  0  0  0  0  0
   23.9522    2.0573   61.3850 C   0  0  0  0  0  0  0  0  0  0  0  0
   24.4407    2.1925   60.1069 N   0  0  0  0  0  0  0  0  0  0  0  0
   25.2494    1.6799   59.8777 H   0  0  0  0  0  0  0  0  0  0  0  0
   24.2817    0.7841   62.1344 C   0  0  0  0  0  0  0  0  0  0  0  0
   24.7937   -0.3124   61.2157 C   0  0  0  0  0  0  0  0  0  0  0  0
   23.9313   -1.4961   61.2932 N   0  0  0  0  0  0  0  0  0  0  0  0
   24.2496   -2.2568   61.8311 H   0  0  0  0  0  0  0  0  0  0  0  0
   22.6792   -1.6265   60.6545 C   0  0  0  0  0  0  0  0  0  0  0  0
   21.5473   -2.0368   61.3475 C   0  0  0  0  0  0  0  0  0  0  0  0
   20.3380   -2.1490   60.6802 C   0  0  0  0  0  0  0  0  0  0  0  0
   20.2577   -1.8528   59.3292 C   0  0  0  0  0  0  0  0  0  0  0  0
   21.3866   -1.4392   58.6416 C   0  0  0  0  0  0  0  0  0  0  0  0
   22.5964   -1.3258   59.3050 C   0  0  0  0  0  0  0  0  0  0  0  0
   24.8750    5.2675   59.7101 C   0  0  0  0  0  0  0  0  0  0  0  0
   24.3566    5.9634   60.5513 O   0  0  0  0  0  0  0  0  0  0  0  0
   26.2472    5.3060   59.5193 N   0  0  0  0  0  0  0  0  0  0  0  0
   26.6122    4.8874   58.7064 H   0  0  0  0  0  0  0  0  0  0  0  0
   27.1965    5.9366   60.4604 C   0  0  0  0  0  0  0  0  0  0  0  0
   27.7765    7.2422   59.9717 C   0  0  0  0  0  0  0  0  0  0  0  0
   29.1349    7.4879   60.0270 C   0  0  0  0  0  0  0  0  0  0  0  0
   29.6326    8.7005   59.5691 C   0  0  0  0  0  0  0  0  0  0  0  0
   28.7797    9.6644   59.0545 C   0  0  0  0  0  0  0  0  0  0  0  0
   27.4159    9.4186   59.0013 C   0  0  0  0  0  0  0  0  0  0  0  0
   26.9218    8.2079   59.4599 C   0  0  0  0  0  0  0  0  0  0  0  0
 12 13  2  0  0  0
 24 25  2  0  0  0
 24 23  1  0  0  0
 25 20  1  0  0  0
  2  5  1  0  0  0
  2  1  1  0  0  0
  5  4  2  0  0  0
 17 18  1  0  0  0
 17 16  1  0  0  0
 23 22  2  0  0  0
 13 16  1  0  0  0
 13 14  1  0  0  0
 20 18  1  0  0  0
 20 21  2  0  0  0
  1 14  1  0  0  0
  1  3  2  0  0  0
  4  3  1  0  0  0
  4  6  1  0  0  0
 22 21  1  0  0  0
  3 26  1  0  0  0
  6  7  2  0  0  0
  6 11  1  0  0  0
  7  8  1  0  0  0
 11 10  2  0  0  0
  8  9  2  0  0  0
 10  9  1  0  0  0
 28 26  1  0  0  0
 28 30  1  0  0  0
 26 27  2  0  0  0
 30 31  1  0  0  0
 32 31  2  0  0  0
 32 33  1  0  0  0
 31 36  1  0  0  0
 33 34  2  0  0  0
 36 35  2  0  0  0
 34 35  1  0  0  0
 18 19  1  0  0  0
 14 15  1  0  0  0
 28 29  1  0  0  0
M  END
> <minimizedAffinity>
-9.29978

$$$$
3WZ8_IXV_A_401


 36 39  0  0  0  0  0  0  0  0999 V2000
   24.2031    6.7282   58.3872 C   0  0  0  0  0  0  0  0  0  0  0  0
   23.7095    7.9810   57.5151 S   0  0  0  0  0  0  0  0  0  0  0  0
   25.4270    7.0344   58.9788 C   0  0  0  0  0  0  0  0  0  0  0  0
   25.8404    8.3332   58.6556 C   0  0  0  0  0  0  0  0  0  0  0  0
   24.9299    8.9729   57.8273 C   0  0  0  0  0  0  0  0  0  0  0  0
   27.0754    9.0007   59.1228 C   0  0  0  0  0  0  0  0  0  0  0  0
   26.9695   10.2224   59.7685 C   0  0  0  0  0  0  0  0  0  0  0  0
   28.1069   10.8788   60.2136 C   0  0  0  0  0  0  0  0  0  0  0  0
   29.3559   10.3135   60.0212 C   0  0  0  0  0  0  0  0  0  0  0  0
   29.4642    9.0902   59.3764 C   0  0  0  0  0  0  0  0  0  0  0  0
   28.3258    8.4330   58.9246 C   0  0  0  0  0  0  0  0  0  0  0  0
   23.3085    5.0328   56.2710 O   0  0  0  0  0  0  0  0  0  0  0  0
   23.2564    4.6528   57.4192 C   0  0  0  0  0  0  0  0  0  0  0  0
   23.4561    5.5330   58.4563 N   0  0  0  0  0  0  0  0  0  0  0  0
   23.0424    5.3104   59.3215 H   0  0  0  0  0  0  0  0  0  0  0  0
   22.9532    3.2111   57.7669 C   0  0  0  0  0  0  0  0  0  0  0  0
   22.7826    2.3415   56.5328 C   0  0  0  0  0  0  0  0  0  0  0  0
   23.3518    1.0086   56.7571 N   0  0  0  0  0  0  0  0  0  0  0  0
   24.2320    0.8167   56.3600 H   0  0  0  0  0  0  0  0  0  0  0  0
   22.7322   -0.0198   57.4997 C   0  0  0  0  0  0  0  0  0  0  0  0
   23.2495   -0.4547   58.7133 C   0  0  0  0  0  0  0  0  0  0  0  0
   22.6069   -1.4661   59.4095 C   0  0  0  0  0  0  0  0  0  0  0  0
   21.4542   -2.0400   58.8985 C   0  0  0  0  0  0  0  0  0  0  0  0
   20.9377   -1.6011   57.6906 C   0  0  0  0  0  0  0  0  0  0  0  0
   21.5768   -0.5909   56.9925 C   0  0  0  0  0  0  0  0  0  0  0  0
   26.1907    6.1227   59.8620 C   0  0  0  0  0  0  0  0  0  0  0  0
   26.5331    6.4786   60.9651 O   0  0  0  0  0  0  0  0  0  0  0  0
   26.5124    4.8544   59.4053 N   0  0  0  0  0  0  0  0  0  0  0  0
   26.3990    4.6667   58.4456 H   0  0  0  0  0  0  0  0  0  0  0  0
   27.0152    3.7660   60.2697 C   0  0  0  0  0  0  0  0  0  0  0  0
   25.9330    2.8886   60.8517 C   0  0  0  0  0  0  0  0  0  0  0  0
   26.1744    1.5643   61.1627 C   0  0  0  0  0  0  0  0  0  0  0  0
   25.1548    0.7872   61.6959 C   0  0  0  0  0  0  0  0  0  0  0  0
   23.8990    1.3288   61.9218 C   0  0  0  0  0  0  0  0  0  0  0  0
   23.6561    2.6575   61.6075 C   0  0  0  0  0  0  0  0  0  0  0  0
   24.6753    3.4305   61.0745 C   0  0  0  0  0  0  0  0  0  0  0  0
 12 13  2  0  0  0
 24 25  2  0  0  0
 24 23  1  0  0  0
 25 20  1  0  0  0
  2  5  1  0  0  0
  2  1  1  0  0  0
  5  4  2  0  0  0
 17 18  1  0  0  0
 17 16  1  0  0  0
 23 22  2  0  0  0
 13 16  1  0  0  0
 13 14  1  0  0  0
 20 18  1  0  0  0
 20 21  2  0  0  0
  1 14  1  0  0  0
  1  3  2  0  0  0
  4  3  1  0  0  0
  4  6  1  0  0  0
 22 21  1  0  0  0
  3 26  1  0  0  0
  6  7  2  0  0  0
  6 11  1  0  0  0
  7  8  1  0  0  0
 11 10  2  0  0  0
  8  9  2  0  0  0
 10  9  1  0  0  0
 28 26  1  0  0  0
 28 30  1  0  0  0
 26 27  2  0  0  0
 30 31  1  0  0  0
 32 31  2  0  0  0
 32 33  1  0  0  0
 31 36  1  0  0  0
 33 34  2  0  0  0
 36 35  2  0  0  0
 34 35  1  0  0  0
 18 19  1  0  0  0
 14 15  1  0  0  0
 28 29  1  0  0  0
M  END
> <minimizedAffinity>
-9.09142

$$$$
3WZ8_IXV_A_401


 36 39  0  0  0  0  0  0  0  0999 V2000
   23.8051    4.3679   57.8544 C   0  0  0  0  0  0  0  0  0  0  0  0
   23.7593    5.9624   57.6831 S   0  0  0  0  0  0  0  0  0  0  0  0
   22.8224    3.7916   57.0521 C   0  0  0  0  0  0  0  0  0  0  0  0
   22.1156    4.7633   56.3319 C   0  0  0  0  0  0  0  0  0  0  0  0
   22.5718    6.0437   56.6089 C   0  0  0  0  0  0  0  0  0  0  0  0
   21.0208    4.5149   55.3682 C   0  0  0  0  0  0  0  0  0  0  0  0
   19.7446    4.9553   55.6810 C   0  0  0  0  0  0  0  0  0  0  0  0
   18.6938    4.7336   54.8038 C   0  0  0  0  0  0  0  0  0  0  0  0
   18.9154    4.0760   53.6059 C   0  0  0  0  0  0  0  0  0  0  0  0
   20.1921    3.6354   53.2901 C   0  0  0  0  0  0  0  0  0  0  0  0
   21.2459    3.8519   54.1703 C   0  0  0  0  0  0  0  0  0  0  0  0
   24.0839    4.6610   60.6810 O   0  0  0  0  0  0  0  0  0  0  0  0
   24.6471    3.7581   60.1039 C   0  0  0  0  0  0  0  0  0  0  0  0
   24.7174    3.7427   58.7308 N   0  0  0  0  0  0  0  0  0  0  0  0
   25.4688    3.2534   58.3242 H   0  0  0  0  0  0  0  0  0  0  0  0
   25.3108    2.6247   60.8562 C   0  0  0  0  0  0  0  0  0  0  0  0
   24.4125    2.0406   61.9335 C   0  0  0  0  0  0  0  0  0  0  0  0
   23.0371    1.9062   61.4426 N   0  0  0  0  0  0  0  0  0  0  0  0
   22.6026    2.7115   61.0794 H   0  0  0  0  0  0  0  0  0  0  0  0
   22.2895    0.7087   61.4520 C   0  0  0  0  0  0  0  0  0  0  0  0
   22.8516   -0.5037   61.0730 C   0  0  0  0  0  0  0  0  0  0  0  0
   22.0807   -1.6549   61.0995 C   0  0  0  0  0  0  0  0  0  0  0  0
   20.7565   -1.5975   61.5027 C   0  0  0  0  0  0  0  0  0  0  0  0
   20.1998   -0.3882   61.8848 C   0  0  0  0  0  0  0  0  0  0  0  0
   20.9670    0.7639   61.8597 C   0  0  0  0  0  0  0  0  0  0  0  0
   22.5657    2.3367   56.9433 C   0  0  0  0  0  0  0  0  0  0  0  0
   23.2789    1.6352   56.2653 O   0  0  0  0  0  0  0  0  0  0  0  0
   21.4920    1.7887   57.6272 N   0  0  0  0  0  0  0  0  0  0  0  0
   20.8208    2.4037   58.0019 H   0  0  0  0  0  0  0  0  0  0  0  0
   21.2922    0.3382   57.8289 C   0  0  0  0  0  0  0  0  0  0  0  0
   19.8975   -0.0387   58.2678 C   0  0  0  0  0  0  0  0  0  0  0  0
   18.9946    0.9197   58.6861 C   0  0  0  0  0  0  0  0  0  0  0  0
   17.7207    0.5359   59.0833 C   0  0  0  0  0  0  0  0  0  0  0  0
   17.3462   -0.7984   59.0607 C   0  0  0  0  0  0  0  0  0  0  0  0
   18.2534   -1.7606   58.6429 C   0  0  0  0  0  0  0  0  0  0  0  0
   19.5245   -1.3749   58.2480 C   0  0  0  0  0  0  0  0  0  0  0  0
 12 13  2  0  0  0
 24 25  2  0  0  0
 24 23  1  0  0  0
 25 20  1  0  0  0
  2  5  1  0  0  0
  2  1  1  0  0  0
  5  4  2  0  0  0
 17 18  1  0  0  0
 17 16  1  0  0  0
 23 22  2  0  0  0
 13 16  1  0  0  0
 13 14  1  0  0  0
 20 18  1  0  0  0
 20 21  2  0  0  0
  1 14  1  0  0  0
  1  3  2  0  0  0
  4  3  1  0  0  0
  4  6  1  0  0  0
 22 21  1  0  0  0
  3 26  1  0  0  0
  6  7  2  0  0  0
  6 11  1  0  0  0
  7  8  1  0  0  0
 11 10  2  0  0  0
  8  9  2  0  0  0
 10  9  1  0  0  0
 28 26  1  0  0  0
 28 30  1  0  0  0
 26 27  2  0  0  0
 30 31  1  0  0  0
 32 31  2  0  0  0
 32 33  1  0  0  0
 31 36  1  0  0  0
 33 34  2  0  0  0
 36 35  2  0  0  0
 34 35  1  0  0  0
 18 19  1  0  0  0
 14 15  1  0  0  0
 28 29  1  0  0  0
M  END
> <minimizedAffinity>
-8.96004

$$$$
3WZ8_IXV_A_401


 36 39  0  0  0  0  0  0  0  0999 V2000
   23.1994    3.1180   57.3425 C   0  0  0  0  0  0  0  0  0  0  0  0
   22.3178    3.4503   56.0440 S   0  0  0  0  0  0  0  0  0  0  0  0
   23.6903    4.3061   57.8804 C   0  0  0  0  0  0  0  0  0  0  0  0
   23.2542    5.4176   57.1479 C   0  0  0  0  0  0  0  0  0  0  0  0
   22.4547    5.0475   56.0763 C   0  0  0  0  0  0  0  0  0  0  0  0
   23.5607    6.8349   57.4417 C   0  0  0  0  0  0  0  0  0  0  0  0
   22.5856    7.7908   57.2050 C   0  0  0  0  0  0  0  0  0  0  0  0
   22.8413    9.1291   57.4628 C   0  0  0  0  0  0  0  0  0  0  0  0
   24.0714    9.5175   57.9652 C   0  0  0  0  0  0  0  0  0  0  0  0
   25.0484    8.5623   58.2041 C   0  0  0  0  0  0  0  0  0  0  0  0
   24.7962    7.2210   57.9413 C   0  0  0  0  0  0  0  0  0  0  0  0
   21.2886    1.0580   57.8505 O   0  0  0  0  0  0  0  0  0  0  0  0
   22.4674    0.7915   57.7806 C   0  0  0  0  0  0  0  0  0  0  0  0
   23.4108    1.7916   57.7752 N   0  0  0  0  0  0  0  0  0  0  0  0
   24.3112    1.5627   58.1011 H   0  0  0  0  0  0  0  0  0  0  0  0
   22.9569   -0.6394   57.7161 C   0  0  0  0  0  0  0  0  0  0  0  0
   22.3834   -1.4983   58.8305 C   0  0  0  0  0  0  0  0  0  0  0  0
   23.2676   -1.4848   60.0005 N   0  0  0  0  0  0  0  0  0  0  0  0
   23.6383   -2.3459   60.3010 H   0  0  0  0  0  0  0  0  0  0  0  0
   23.6269   -0.3297   60.7282 C   0  0  0  0  0  0  0  0  0  0  0  0
   22.6698    0.4883   61.3152 C   0  0  0  0  0  0  0  0  0  0  0  0
   23.0683    1.6114   62.0223 C   0  0  0  0  0  0  0  0  0  0  0  0
   24.4142    1.9168   62.1441 C   0  0  0  0  0  0  0  0  0  0  0  0
   25.3667    1.0969   61.5621 C   0  0  0  0  0  0  0  0  0  0  0  0
   24.9723   -0.0260   60.8550 C   0  0  0  0  0  0  0  0  0  0  0  0
   24.5423    4.3986   59.0887 C   0  0  0  0  0  0  0  0  0  0  0  0
   24.0553    4.6417   60.1677 O   0  0  0  0  0  0  0  0  0  0  0  0
   25.9094    4.2064   58.9659 N   0  0  0  0  0  0  0  0  0  0  0  0
   26.2967    4.2103   58.0608 H   0  0  0  0  0  0  0  0  0  0  0  0
   26.8218    3.9959   60.1094 C   0  0  0  0  0  0  0  0  0  0  0  0
   27.4830    5.2565   60.6131 C   0  0  0  0  0  0  0  0  0  0  0  0
   27.8817    5.3791   61.9303 C   0  0  0  0  0  0  0  0  0  0  0  0
   28.4860    6.5536   62.3582 C   0  0  0  0  0  0  0  0  0  0  0  0
   28.6956    7.6017   61.4758 C   0  0  0  0  0  0  0  0  0  0  0  0
   28.2932    7.4794   60.1542 C   0  0  0  0  0  0  0  0  0  0  0  0
   27.6894    6.3064   59.7301 C   0  0  0  0  0  0  0  0  0  0  0  0
 12 13  2  0  0  0
 24 25  2  0  0  0
 24 23  1  0  0  0
 25 20  1  0  0  0
  2  5  1  0  0  0
  2  1  1  0  0  0
  5  4  2  0  0  0
 17 18  1  0  0  0
 17 16  1  0  0  0
 23 22  2  0  0  0
 13 16  1  0  0  0
 13 14  1  0  0  0
 20 18  1  0  0  0
 20 21  2  0  0  0
  1 14  1  0  0  0
  1  3  2  0  0  0
  4  3  1  0  0  0
  4  6  1  0  0  0
 22 21  1  0  0  0
  3 26  1  0  0  0
  6  7  2  0  0  0
  6 11  1  0  0  0
  7  8  1  0  0  0
 11 10  2  0  0  0
  8  9  2  0  0  0
 10  9  1  0  0  0
 28 26  1  0  0  0
 28 30  1  0  0  0
 26 27  2  0  0  0
 30 31  1  0  0  0
 32 31  2  0  0  0
 32 33  1  0  0  0
 31 36  1  0  0  0
 33 34  2  0  0  0
 36 35  2  0  0  0
 34 35  1  0  0  0
 18 19  1  0  0  0
 14 15  1  0  0  0
 28 29  1  0  0  0
M  END
> <minimizedAffinity>
-8.92099

$$$$
3WZ8_IXV_A_401


 36 39  0  0  0  0  0  0  0  0999 V2000
   23.9301    2.9655   59.6042 C   0  0  0  0  0  0  0  0  0  0  0  0
   24.4772    3.1035   61.1060 S   0  0  0  0  0  0  0  0  0  0  0  0
   23.0683    1.8733   59.5281 C   0  0  0  0  0  0  0  0  0  0  0  0
   22.9249    1.2474   60.7731 C   0  0  0  0  0  0  0  0  0  0  0  0
   23.6813    1.8717   61.7541 C   0  0  0  0  0  0  0  0  0  0  0  0
   22.0740    0.0741   61.0704 C   0  0  0  0  0  0  0  0  0  0  0  0
   20.8019    0.2847   61.5785 C   0  0  0  0  0  0  0  0  0  0  0  0
   19.9802   -0.7923   61.8746 C   0  0  0  0  0  0  0  0  0  0  0  0
   20.4241   -2.0856   61.6576 C   0  0  0  0  0  0  0  0  0  0  0  0
   21.6963   -2.2987   61.1478 C   0  0  0  0  0  0  0  0  0  0  0  0
   22.5237   -1.2208   60.8553 C   0  0  0  0  0  0  0  0  0  0  0  0
   22.3524    4.3425   57.6632 O   0  0  0  0  0  0  0  0  0  0  0  0
   23.5120    4.6463   57.8320 C   0  0  0  0  0  0  0  0  0  0  0  0
   24.3419    3.8466   58.5817 N   0  0  0  0  0  0  0  0  0  0  0  0
   25.3061    3.8925   58.3886 H   0  0  0  0  0  0  0  0  0  0  0  0
   24.1043    5.8965   57.2176 C   0  0  0  0  0  0  0  0  0  0  0  0
   24.5237    6.9137   58.2653 C   0  0  0  0  0  0  0  0  0  0  0  0
   25.9715    7.1418   58.2137 N   0  0  0  0  0  0  0  0  0  0  0  0
   26.3600    7.4078   57.3490 H   0  0  0  0  0  0  0  0  0  0  0  0
   26.8499    7.0086   59.3107 C   0  0  0  0  0  0  0  0  0  0  0  0
   26.5991    6.1095   60.3396 C   0  0  0  0  0  0  0  0  0  0  0  0
   27.4901    6.0108   61.3962 C   0  0  0  0  0  0  0  0  0  0  0  0
   28.6257    6.8038   61.4264 C   0  0  0  0  0  0  0  0  0  0  0  0
   28.8760    7.6959   60.3970 C   0  0  0  0  0  0  0  0  0  0  0  0
   27.9882    7.7972   59.3396 C   0  0  0  0  0  0  0  0  0  0  0  0
   22.3645    1.4356   58.3002 C   0  0  0  0  0  0  0  0  0  0  0  0
   22.9779    0.9465   57.3808 O   0  0  0  0  0  0  0  0  0  0  0  0
   20.9907    1.5977   58.2165 N   0  0  0  0  0  0  0  0  0  0  0  0
   20.5521    2.1728   58.8844 H   0  0  0  0  0  0  0  0  0  0  0  0
   20.1431    0.9607   57.1868 C   0  0  0  0  0  0  0  0  0  0  0  0
   19.6957   -0.4392   57.5335 C   0  0  0  0  0  0  0  0  0  0  0  0
   20.4118   -1.5443   57.1154 C   0  0  0  0  0  0  0  0  0  0  0  0
   19.9699   -2.8166   57.4524 C   0  0  0  0  0  0  0  0  0  0  0  0
   18.8196   -2.9876   58.2067 C   0  0  0  0  0  0  0  0  0  0  0  0
   18.0996   -1.8783   58.6243 C   0  0  0  0  0  0  0  0  0  0  0  0
   18.5424   -0.6096   58.2856 C   0  0  0  0  0  0  0  0  0  0  0  0
 12 13  2  0  0  0
 24 25  2  0  0  0
 24 23  1  0  0  0
 25 20  1  0  0  0
  2  5  1  0  0  0
  2  1  1  0  0  0
  5  4  2  0  0  0
 17 18  1  0  0  0
 17 16  1  0  0  0
 23 22  2  0  0  0
 13 16  1  0  0  0
 13 14  1  0  0  0
 20 18  1  0  0  0
 20 21  2  0  0  0
  1 14  1  0  0  0
  1  3  2  0  0  0
  4  3  1  0  0  0
  4  6  1  0  0  0
 22 21  1  0  0  0
  3 26  1  0  0  0
  6  7  2  0  0  0
  6 11  1  0  0  0
  7  8  1  0  0  0
 11 10  2  0  0  0
  8  9  2  0  0  0
 10  9  1  0  0  0
 28 26  1  0  0  0
 28 30  1  0  0  0
 26 27  2  0  0  0
 30 31  1  0  0  0
 32 31  2  0  0  0
 32 33  1  0  0  0
 31 36  1  0  0  0
 33 34  2  0  0  0
 36 35  2  0  0  0
 34 35  1  0  0  0
 18 19  1  0  0  0
 14 15  1  0  0  0
 28 29  1  0  0  0
M  END
> <minimizedAffinity>
-8.81102

$$$$
3WZ8_IXV_A_401


 36 39  0  0  0  0  0  0  0  0999 V2000
   24.1717    4.2843   58.9397 C   0  0  0  0  0  0  0  0  0  0  0  0
   23.7295    4.9070   57.5288 S   0  0  0  0  0  0  0  0  0  0  0  0
   23.5697    3.0379   59.1002 C   0  0  0  0  0  0  0  0  0  0  0  0
   22.7885    2.7002   57.9875 C   0  0  0  0  0  0  0  0  0  0  0  0
   22.8116    3.6946   57.0205 C   0  0  0  0  0  0  0  0  0  0  0  0
   22.0249    1.4466   57.8017 C   0  0  0  0  0  0  0  0  0  0  0  0
   22.6672    0.3507   57.2476 C   0  0  0  0  0  0  0  0  0  0  0  0
   21.9799   -0.8378   57.0532 C   0  0  0  0  0  0  0  0  0  0  0  0
   20.6483   -0.9385   57.4183 C   0  0  0  0  0  0  0  0  0  0  0  0
   20.0039    0.1566   57.9743 C   0  0  0  0  0  0  0  0  0  0  0  0
   20.6893    1.3506   58.1652 C   0  0  0  0  0  0  0  0  0  0  0  0
   26.9181    3.8111   59.5611 O   0  0  0  0  0  0  0  0  0  0  0  0
   26.3850    4.8423   59.9043 C   0  0  0  0  0  0  0  0  0  0  0  0
   25.0196    4.9831   59.8250 N   0  0  0  0  0  0  0  0  0  0  0  0
   24.5972    5.6268   60.4386 H   0  0  0  0  0  0  0  0  0  0  0  0
   27.1831    6.0072   60.4495 C   0  0  0  0  0  0  0  0  0  0  0  0
   28.6491    5.6617   60.6489 C   0  0  0  0  0  0  0  0  0  0  0  0
   29.5074    6.7342   60.1350 N   0  0  0  0  0  0  0  0  0  0  0  0
   30.2520    6.4778   59.5442 H   0  0  0  0  0  0  0  0  0  0  0  0
   29.3458    8.1065   60.4239 C   0  0  0  0  0  0  0  0  0  0  0  0
   29.1698    8.5612   61.7246 C   0  0  0  0  0  0  0  0  0  0  0  0
   29.0170    9.9178   61.9620 C   0  0  0  0  0  0  0  0  0  0  0  0
   29.0405   10.8165   60.9078 C   0  0  0  0  0  0  0  0  0  0  0  0
   29.2211   10.3612   59.6123 C   0  0  0  0  0  0  0  0  0  0  0  0
   29.3742    9.0065   59.3714 C   0  0  0  0  0  0  0  0  0  0  0  0
   23.7470    2.1589   60.2794 C   0  0  0  0  0  0  0  0  0  0  0  0
   23.7201    2.6168   61.3976 O   0  0  0  0  0  0  0  0  0  0  0  0
   23.9486    0.8017   60.0843 N   0  0  0  0  0  0  0  0  0  0  0  0
   24.1639    0.4930   59.1746 H   0  0  0  0  0  0  0  0  0  0  0  0
   23.8604   -0.2110   61.1573 C   0  0  0  0  0  0  0  0  0  0  0  0
   22.4744   -0.7728   61.3649 C   0  0  0  0  0  0  0  0  0  0  0  0
   21.3829    0.0572   61.5344 C   0  0  0  0  0  0  0  0  0  0  0  0
   20.1232   -0.4950   61.7237 C   0  0  0  0  0  0  0  0  0  0  0  0
   19.9506   -1.8702   61.7407 C   0  0  0  0  0  0  0  0  0  0  0  0
   21.0466   -2.7033   61.5729 C   0  0  0  0  0  0  0  0  0  0  0  0
   22.3029   -2.1494   61.3852 C   0  0  0  0  0  0  0  0  0  0  0  0
 12 13  2  0  0  0
 24 25  2  0  0  0
 24 23  1  0  0  0
 25 20  1  0  0  0
  2  5  1  0  0  0
  2  1  1  0  0  0
  5  4  2  0  0  0
 17 18  1  0  0  0
 17 16  1  0  0  0
 23 22  2  0  0  0
 13 16  1  0  0  0
 13 14  1  0  0  0
 20 18  1  0  0  0
 20 21  2  0  0  0
  1 14  1  0  0  0
  1  3  2  0  0  0
  4  3  1  0  0  0
  4  6  1  0  0  0
 22 21  1  0  0  0
  3 26  1  0  0  0
  6  7  2  0  0  0
  6 11  1  0  0  0
  7  8  1  0  0  0
 11 10  2  0  0  0
  8  9  2  0  0  0
 10  9  1  0  0  0
 28 26  1  0  0  0
 28 30  1  0  0  0
 26 27  2  0  0  0
 30 31  1  0  0  0
 32 31  2  0  0  0
 32 33  1  0  0  0
 31 36  1  0  0  0
 33 34  2  0  0  0
 36 35  2  0  0  0
 34 35  1  0  0  0
 18 19  1  0  0  0
 14 15  1  0  0  0
 28 29  1  0  0  0
M  END
> <minimizedAffinity>
-8.75467

$$$$
3WZ8_IXV_A_401


 36 39  0  0  0  0  0  0  0  0999 V2000
   20.8524   -1.4511   58.8153 C   0  0  0  0  0  0  0  0  0  0  0  0
   20.5609   -2.1507   60.2292 S   0  0  0  0  0  0  0  0  0  0  0  0
   21.8889   -0.5315   58.9632 C   0  0  0  0  0  0  0  0  0  0  0  0
   22.3710   -0.5116   60.2783 C   0  0  0  0  0  0  0  0  0  0  0  0
   21.6887   -1.4051   61.0911 C   0  0  0  0  0  0  0  0  0  0  0  0
   23.4785    0.3239   60.7923 C   0  0  0  0  0  0  0  0  0  0  0  0
   23.1755    1.4128   61.5944 C   0  0  0  0  0  0  0  0  0  0  0  0
   24.1885    2.2210   62.0878 C   0  0  0  0  0  0  0  0  0  0  0  0
   25.5104    1.9405   61.7871 C   0  0  0  0  0  0  0  0  0  0  0  0
   25.8161    0.8505   60.9856 C   0  0  0  0  0  0  0  0  0  0  0  0
   24.8020    0.0421   60.4855 C   0  0  0  0  0  0  0  0  0  0  0  0
   18.3913   -0.3258   57.9046 O   0  0  0  0  0  0  0  0  0  0  0  0
   19.0472   -1.0303   57.1706 C   0  0  0  0  0  0  0  0  0  0  0  0
   20.0996   -1.7650   57.6638 N   0  0  0  0  0  0  0  0  0  0  0  0
   20.3493   -2.5801   57.1714 H   0  0  0  0  0  0  0  0  0  0  0  0
   18.7336   -1.1515   55.6948 C   0  0  0  0  0  0  0  0  0  0  0  0
   18.7861    0.1881   54.9799 C   0  0  0  0  0  0  0  0  0  0  0  0
   19.9108    0.9917   55.4699 N   0  0  0  0  0  0  0  0  0  0  0  0
   20.7664    0.5302   55.6258 H   0  0  0  0  0  0  0  0  0  0  0  0
   19.8587    2.3773   55.7348 C   0  0  0  0  0  0  0  0  0  0  0  0
   19.4421    2.8683   56.9657 C   0  0  0  0  0  0  0  0  0  0  0  0
   19.4085    4.2366   57.1824 C   0  0  0  0  0  0  0  0  0  0  0  0
   19.7891    5.1106   56.1771 C   0  0  0  0  0  0  0  0  0  0  0  0
   20.2088    4.6185   54.9524 C   0  0  0  0  0  0  0  0  0  0  0  0
   20.2438    3.2521   54.7325 C   0  0  0  0  0  0  0  0  0  0  0  0
   22.4396    0.3046   57.8713 C   0  0  0  0  0  0  0  0  0  0  0  0
   22.5787   -0.1488   56.7597 O   0  0  0  0  0  0  0  0  0  0  0  0
   22.7983    1.6157   58.1416 N   0  0  0  0  0  0  0  0  0  0  0  0
   22.8624    1.8919   59.0844 H   0  0  0  0  0  0  0  0  0  0  0  0
   23.0904    2.6251   57.1022 C   0  0  0  0  0  0  0  0  0  0  0  0
   23.5431    3.9591   57.6457 C   0  0  0  0  0  0  0  0  0  0  0  0
   23.3365    5.1281   56.9388 C   0  0  0  0  0  0  0  0  0  0  0  0
   23.7670    6.3367   57.4696 C   0  0  0  0  0  0  0  0  0  0  0  0
   24.3986    6.3812   58.7026 C   0  0  0  0  0  0  0  0  0  0  0  0
   24.6081    5.2074   59.4110 C   0  0  0  0  0  0  0  0  0  0  0  0
   24.1783    4.0024   58.8784 C   0  0  0  0  0  0  0  0  0  0  0  0
 12 13  2  0  0  0
 24 25  2  0  0  0
 24 23  1  0  0  0
 25 20  1  0  0  0
  2  5  1  0  0  0
  2  1  1  0  0  0
  5  4  2  0  0  0
 17 18  1  0  0  0
 17 16  1  0  0  0
 23 22  2  0  0  0
 13 16  1  0  0  0
 13 14  1  0  0  0
 20 18  1  0  0  0
 20 21  2  0  0  0
  1 14  1  0  0  0
  1  3  2  0  0  0
  4  3  1  0  0  0
  4  6  1  0  0  0
 22 21  1  0  0  0
  3 26  1  0  0  0
  6  7  2  0  0  0
  6 11  1  0  0  0
  7  8  1  0  0  0
 11 10  2  0  0  0
  8  9  2  0  0  0
 10  9  1  0  0  0
 28 26  1  0  0  0
 28 30  1  0  0  0
 26 27  2  0  0  0
 30 31  1  0  0  0
 32 31  2  0  0  0
 32 33  1  0  0  0
 31 36  1  0  0  0
 33 34  2  0  0  0
 36 35  2  0  0  0
 34 35  1  0  0  0
 18 19  1  0  0  0
 14 15  1  0  0  0
 28 29  1  0  0  0
M  END
> <minimizedAffinity>
-8.73635

$$$$
3WZ8_IXV_A_401


 36 39  0  0  0  0  0  0  0  0999 V2000
   20.4219    1.8322   57.3753 C   0  0  0  0  0  0  0  0  0  0  0  0
   19.2460    2.3707   56.4261 S   0  0  0  0  0  0  0  0  0  0  0  0
   20.1423    0.5204   57.7533 C   0  0  0  0  0  0  0  0  0  0  0  0
   18.9468    0.0672   57.1810 C   0  0  0  0  0  0  0  0  0  0  0  0
   18.3500    1.0414   56.3942 C   0  0  0  0  0  0  0  0  0  0  0  0
   18.3527   -1.2779   57.3444 C   0  0  0  0  0  0  0  0  0  0  0  0
   17.6740   -1.5690   58.5172 C   0  0  0  0  0  0  0  0  0  0  0  0
   17.1106   -2.8218   58.7063 C   0  0  0  0  0  0  0  0  0  0  0  0
   17.2171   -3.7880   57.7206 C   0  0  0  0  0  0  0  0  0  0  0  0
   17.8947   -3.4985   56.5454 C   0  0  0  0  0  0  0  0  0  0  0  0
   18.4649   -2.2451   56.3559 C   0  0  0  0  0  0  0  0  0  0  0  0
   23.0600    1.9092   56.2856 O   0  0  0  0  0  0  0  0  0  0  0  0
   22.6800    2.7903   57.0237 C   0  0  0  0  0  0  0  0  0  0  0  0
   21.5139    2.6489   57.7383 N   0  0  0  0  0  0  0  0  0  0  0  0
   21.4340    3.1614   58.5751 H   0  0  0  0  0  0  0  0  0  0  0  0
   23.4698    4.0681   57.2095 C   0  0  0  0  0  0  0  0  0  0  0  0
   23.9349    4.2579   58.6434 C   0  0  0  0  0  0  0  0  0  0  0  0
   25.3364    3.8514   58.7902 N   0  0  0  0  0  0  0  0  0  0  0  0
   25.6523    3.0989   58.2396 H   0  0  0  0  0  0  0  0  0  0  0  0
   26.2664    4.4582   59.6618 C   0  0  0  0  0  0  0  0  0  0  0  0
   25.9309    5.5686   60.4263 C   0  0  0  0  0  0  0  0  0  0  0  0
   26.8755    6.1306   61.2702 C   0  0  0  0  0  0  0  0  0  0  0  0
   28.1475    5.5878   61.3521 C   0  0  0  0  0  0  0  0  0  0  0  0
   28.4779    4.4777   60.5926 C   0  0  0  0  0  0  0  0  0  0  0  0
   27.5369    3.9135   59.7485 C   0  0  0  0  0  0  0  0  0  0  0  0
   21.0047   -0.3101   58.6257 C   0  0  0  0  0  0  0  0  0  0  0  0
   21.8242   -1.0586   58.1475 O   0  0  0  0  0  0  0  0  0  0  0  0
   20.8573   -0.2211   60.0009 N   0  0  0  0  0  0  0  0  0  0  0  0
   20.0592    0.2370   60.3510 H   0  0  0  0  0  0  0  0  0  0  0  0
   21.8237   -0.7713   60.9744 C   0  0  0  0  0  0  0  0  0  0  0  0
   22.9860    0.1439   61.2766 C   0  0  0  0  0  0  0  0  0  0  0  0
   22.7840    1.4562   61.6589 C   0  0  0  0  0  0  0  0  0  0  0  0
   23.8769    2.2689   61.9281 C   0  0  0  0  0  0  0  0  0  0  0  0
   25.1675    1.7750   61.8202 C   0  0  0  0  0  0  0  0  0  0  0  0
   25.3703    0.4585   61.4341 C   0  0  0  0  0  0  0  0  0  0  0  0
   24.2776   -0.3502   61.1650 C   0  0  0  0  0  0  0  0  0  0  0  0
 12 13  2  0  0  0
 24 25  2  0  0  0
 24 23  1  0  0  0
 25 20  1  0  0  0
  2  5  1  0  0  0
  2  1  1  0  0  0
  5  4  2  0  0  0
 17 18  1  0  0  0
 17 16  1  0  0  0
 23 22  2  0  0  0
 13 16  1  0  0  0
 13 14  1  0  0  0
 20 18  1  0  0  0
 20 21  2  0  0  0
  1 14  1  0  0  0
  1  3  2  0  0  0
  4  3  1  0  0  0
  4  6  1  0  0  0
 22 21  1  0  0  0
  3 26  1  0  0  0
  6  7  2  0  0  0
  6 11  1  0  0  0
  7  8  1  0  0  0
 11 10  2  0  0  0
  8  9  2  0  0  0
 10  9  1  0  0  0
 28 26  1  0  0  0
 28 30  1  0  0  0
 26 27  2  0  0  0
 30 31  1  0  0  0
 32 31  2  0  0  0
 32 33  1  0  0  0
 31 36  1  0  0  0
 33 34  2  0  0  0
 36 35  2  0  0  0
 34 35  1  0  0  0
 18 19  1  0  0  0
 14 15  1  0  0  0
 28 29  1  0  0  0
M  END
> <minimizedAffinity>
-8.71517

$$$$
3WZ8_IXV_A_401


 36 39  0  0  0  0  0  0  0  0999 V2000
   23.6264    3.9078   57.9451 C   0  0  0  0  0  0  0  0  0  0  0  0
   23.0343    5.1219   57.0796 S   0  0  0  0  0  0  0  0  0  0  0  0
   22.7034    2.8641   57.9632 C   0  0  0  0  0  0  0  0  0  0  0  0
   21.5627    3.1772   57.2130 C   0  0  0  0  0  0  0  0  0  0  0  0
   21.6450    4.4441   56.6540 C   0  0  0  0  0  0  0  0  0  0  0  0
   20.3913    2.3005   56.9934 C   0  0  0  0  0  0  0  0  0  0  0  0
   20.1812    1.7727   55.7292 C   0  0  0  0  0  0  0  0  0  0  0  0
   19.0898    0.9526   55.4865 C   0  0  0  0  0  0  0  0  0  0  0  0
   18.2063    0.6505   56.5087 C   0  0  0  0  0  0  0  0  0  0  0  0
   18.4153    1.1765   57.7750 C   0  0  0  0  0  0  0  0  0  0  0  0
   19.5057    2.0031   58.0193 C   0  0  0  0  0  0  0  0  0  0  0  0
   24.4386    5.5413   60.1416 O   0  0  0  0  0  0  0  0  0  0  0  0
   25.1426    4.6305   59.7671 C   0  0  0  0  0  0  0  0  0  0  0  0
   24.8855    3.9927   58.5764 N   0  0  0  0  0  0  0  0  0  0  0  0
   25.6452    3.5580   58.1256 H   0  0  0  0  0  0  0  0  0  0  0  0
   26.3379    4.1664   60.5714 C   0  0  0  0  0  0  0  0  0  0  0  0
   27.5750    5.0083   60.3081 C   0  0  0  0  0  0  0  0  0  0  0  0
   27.2969    6.0333   59.2968 N   0  0  0  0  0  0  0  0  0  0  0  0
   26.7764    5.7633   58.5060 H   0  0  0  0  0  0  0  0  0  0  0  0
   27.7197    7.3781   59.3722 C   0  0  0  0  0  0  0  0  0  0  0  0
   26.8403    8.4313   59.1550 C   0  0  0  0  0  0  0  0  0  0  0  0
   27.2987    9.7362   59.2412 C   0  0  0  0  0  0  0  0  0  0  0  0
   28.6269    9.9895   59.5433 C   0  0  0  0  0  0  0  0  0  0  0  0
   29.5005    8.9378   59.7644 C   0  0  0  0  0  0  0  0  0  0  0  0
   29.0461    7.6329   59.6792 C   0  0  0  0  0  0  0  0  0  0  0  0
   22.9022    1.5717   58.6595 C   0  0  0  0  0  0  0  0  0  0  0  0
   23.0204    1.5324   59.8616 O   0  0  0  0  0  0  0  0  0  0  0  0
   22.9551    0.4051   57.9132 N   0  0  0  0  0  0  0  0  0  0  0  0
   23.0568    0.4855   56.9373 H   0  0  0  0  0  0  0  0  0  0  0  0
   22.8683   -0.9523   58.4915 C   0  0  0  0  0  0  0  0  0  0  0  0
   21.4770   -1.5388   58.4866 C   0  0  0  0  0  0  0  0  0  0  0  0
   20.9621   -2.1523   57.3608 C   0  0  0  0  0  0  0  0  0  0  0  0
   19.6782   -2.6798   57.3927 C   0  0  0  0  0  0  0  0  0  0  0  0
   18.9104   -2.5993   58.5439 C   0  0  0  0  0  0  0  0  0  0  0  0
   19.4264   -1.9814   59.6732 C   0  0  0  0  0  0  0  0  0  0  0  0
   20.7078   -1.4549   59.6382 C   0  0  0  0  0  0  0  0  0  0  0  0
 12 13  2  0  0  0
 24 25  2  0  0  0
 24 23  1  0  0  0
 25 20  1  0  0  0
  2  5  1  0  0  0
  2  1  1  0  0  0
  5  4  2  0  0  0
 17 18  1  0  0  0
 17 16  1  0  0  0
 23 22  2  0  0  0
 13 16  1  0  0  0
 13 14  1  0  0  0
 20 18  1  0  0  0
 20 21  2  0  0  0
  1 14  1  0  0  0
  1  3  2  0  0  0
  4  3  1  0  0  0
  4  6  1  0  0  0
 22 21  1  0  0  0
  3 26  1  0  0  0
  6  7  2  0  0  0
  6 11  1  0  0  0
  7  8  1  0  0  0
 11 10  2  0  0  0
  8  9  2  0  0  0
 10  9  1  0  0  0
 28 26  1  0  0  0
 28 30  1  0  0  0
 26 27  2  0  0  0
 30 31  1  0  0  0
 32 31  2  0  0  0
 32 33  1  0  0  0
 31 36  1  0  0  0
 33 34  2  0  0  0
 36 35  2  0  0  0
 34 35  1  0  0  0
 18 19  1  0  0  0
 14 15  1  0  0  0
 28 29  1  0  0  0
M  END
> <minimizedAffinity>
-8.64237

$$$$
