5EF7_5OJ_A_804


 26 27  0  0  0  0  0  0  0  0999 V2000
   -5.8878   16.6330   27.6245 O   0  0  0  0  0  0  0  0  0  0  0  0
   -6.8949   15.9508   27.6361 C   0  0  0  0  0  0  0  0  0  0  0  0
   -6.8204   14.6927   28.3064 N   0  0  0  0  0  0  0  0  0  0  0  0
   -7.9910   13.7967   28.3814 C   0  0  0  0  0  0  0  0  0  0  0  0
   -8.2228   12.7490   27.4577 C   0  0  0  0  0  0  0  0  0  0  0  0
   -9.3411   11.9207   27.5646 C   0  0  0  0  0  0  0  0  0  0  0  0
  -10.2689   12.0855   28.5939 C   0  0  0  0  0  0  0  0  0  0  0  0
  -10.0516   13.1046   29.5098 C   0  0  0  0  0  0  0  0  0  0  0  0
   -8.9415   13.9441   29.4095 C   0  0  0  0  0  0  0  0  0  0  0  0
   -5.5805   14.2181   28.9677 C   0  0  0  0  0  0  0  0  0  0  0  0
   -4.6276   13.4348   27.9938 C   0  0  0  0  0  0  0  0  0  0  0  0
   -3.8065   14.3830   27.3763 O   0  0  0  0  0  0  0  0  0  0  0  0
   -4.3558   15.0249   26.8996 H   0  0  0  0  0  0  0  0  0  0  0  0
   -8.1617   16.4879   26.9442 C   0  0  0  0  0  0  0  0  0  0  0  0
   -8.2751   16.2721   25.4380 C   0  0  0  0  0  0  0  0  0  0  0  0
   -7.9424   15.0616   24.8302 C   0  0  0  0  0  0  0  0  0  0  0  0
   -8.0386   14.8545   23.4616 C   0  0  0  0  0  0  0  0  0  0  0  0
   -8.7143   17.2683   24.5668 C   0  0  0  0  0  0  0  0  0  0  0  0
   -8.8176   17.0758   23.1948 C   0  0  0  0  0  0  0  0  0  0  0  0
   -8.4796   15.8589   22.6045 C   0  0  0  0  0  0  0  0  0  0  0  0
   -8.6303   15.6842   21.1286 C   0  0  0  0  0  0  0  0  0  0  0  0
   -9.0052   14.6657   20.5873 O   0  0  0  0  0  0  0  0  0  0  0  0
   -8.3433   16.8745   20.3469 N   0  0  0  0  0  0  0  0  0  0  0  0
   -8.4859   16.7474   19.0287 O   0  0  0  0  0  0  0  0  0  0  0  0
   -8.0615   17.7204   20.7644 H   0  0  0  0  0  0  0  0  0  0  0  0
   -8.7681   15.8432   18.8197 H   0  0  0  0  0  0  0  0  0  0  0  0
 24 23  1  0  0  0
 22 21  2  0  0  0
 23 21  1  0  0  0
 21 20  1  0  0  0
 20 17  2  0  0  0
 20 19  1  0  0  0
 17 16  1  0  0  0
 19 18  2  0  0  0
 16 15  2  0  0  0
 18 15  1  0  0  0
 15 14  1  0  0  0
 14  2  1  0  0  0
  1  2  2  0  0  0
  2  3  1  0  0  0
  3  4  1  0  0  0
  3 10  1  0  0  0
  4  9  2  0  0  0
  4  5  1  0  0  0
  9  8  1  0  0  0
  5  6  2  0  0  0
 11 10  1  0  0  0
 11 12  1  0  0  0
  6  7  1  0  0  0
  8  7  2  0  0  0
 12 13  1  0  0  0
 23 25  1  0  0  0
 24 26  1  0  0  0
M  END
> <minimizedAffinity>
-8.19725

$$$$
5EF7_5OJ_A_804


 26 27  0  0  0  0  0  0  0  0999 V2000
   -8.8199   14.9578   28.3358 O   0  0  0  0  0  0  0  0  0  0  0  0
   -7.7775   15.4485   27.9458 C   0  0  0  0  0  0  0  0  0  0  0  0
   -6.5658   14.8258   28.3725 N   0  0  0  0  0  0  0  0  0  0  0  0
   -5.2504   15.3425   27.9467 C   0  0  0  0  0  0  0  0  0  0  0  0
   -4.5908   14.9039   26.7732 C   0  0  0  0  0  0  0  0  0  0  0  0
   -3.3479   15.4198   26.4028 C   0  0  0  0  0  0  0  0  0  0  0  0
   -2.7117   16.3973   27.1691 C   0  0  0  0  0  0  0  0  0  0  0  0
   -3.3490   16.8406   28.3189 C   0  0  0  0  0  0  0  0  0  0  0  0
   -4.5882   16.3275   28.7039 C   0  0  0  0  0  0  0  0  0  0  0  0
   -6.5545   13.6315   29.2520 C   0  0  0  0  0  0  0  0  0  0  0  0
   -6.1814   12.3103   28.4870 C   0  0  0  0  0  0  0  0  0  0  0  0
   -7.3709   11.7890   27.9693 O   0  0  0  0  0  0  0  0  0  0  0  0
   -7.9920   11.6189   28.6947 H   0  0  0  0  0  0  0  0  0  0  0  0
   -7.8377   16.6830   27.0269 C   0  0  0  0  0  0  0  0  0  0  0  0
   -8.0557   16.4308   25.5379 C   0  0  0  0  0  0  0  0  0  0  0  0
   -8.5653   17.4072   24.6822 C   0  0  0  0  0  0  0  0  0  0  0  0
   -8.7706   17.1887   23.3275 C   0  0  0  0  0  0  0  0  0  0  0  0
   -7.7649   15.2091   24.9320 C   0  0  0  0  0  0  0  0  0  0  0  0
   -7.9634   14.9754   23.5769 C   0  0  0  0  0  0  0  0  0  0  0  0
   -8.4748   15.9634   22.7367 C   0  0  0  0  0  0  0  0  0  0  0  0
   -8.6481   15.6804   21.2802 C   0  0  0  0  0  0  0  0  0  0  0  0
   -9.0067   14.6170   20.8200 O   0  0  0  0  0  0  0  0  0  0  0  0
   -8.4060   16.8185   20.4106 N   0  0  0  0  0  0  0  0  0  0  0  0
   -8.5696   16.5943   19.1078 O   0  0  0  0  0  0  0  0  0  0  0  0
   -8.1384   17.6985   20.7615 H   0  0  0  0  0  0  0  0  0  0  0  0
   -8.8323   15.6709   18.9691 H   0  0  0  0  0  0  0  0  0  0  0  0
 24 23  1  0  0  0
 22 21  2  0  0  0
 23 21  1  0  0  0
 21 20  1  0  0  0
 20 17  2  0  0  0
 20 19  1  0  0  0
 17 16  1  0  0  0
 19 18  2  0  0  0
 16 15  2  0  0  0
 18 15  1  0  0  0
 15 14  1  0  0  0
 14  2  1  0  0  0
  1  2  2  0  0  0
  2  3  1  0  0  0
  3  4  1  0  0  0
  3 10  1  0  0  0
  4  9  2  0  0  0
  4  5  1  0  0  0
  9  8  1  0  0  0
  5  6  2  0  0  0
 11 10  1  0  0  0
 11 12  1  0  0  0
  6  7  1  0  0  0
  8  7  2  0  0  0
 12 13  1  0  0  0
 23 25  1  0  0  0
 24 26  1  0  0  0
M  END
> <minimizedAffinity>
-7.66593

$$$$
5EF7_5OJ_A_804


 26 27  0  0  0  0  0  0  0  0999 V2000
   -8.6965   17.4754   28.3738 O   0  0  0  0  0  0  0  0  0  0  0  0
   -8.2543   16.3859   28.0625 C   0  0  0  0  0  0  0  0  0  0  0  0
   -8.7975   15.2481   28.7320 N   0  0  0  0  0  0  0  0  0  0  0  0
   -8.3317   13.8829   28.4187 C   0  0  0  0  0  0  0  0  0  0  0  0
   -8.9356   13.0680   27.4309 C   0  0  0  0  0  0  0  0  0  0  0  0
   -8.4632   11.7825   27.1617 C   0  0  0  0  0  0  0  0  0  0  0  0
   -7.3691   11.2543   27.8483 C   0  0  0  0  0  0  0  0  0  0  0  0
   -6.7638   12.0438   28.8152 C   0  0  0  0  0  0  0  0  0  0  0  0
   -7.2311   13.3277   29.0987 C   0  0  0  0  0  0  0  0  0  0  0  0
   -9.8559   15.3654   29.7645 C   0  0  0  0  0  0  0  0  0  0  0  0
   -9.2986   15.8070   31.1662 C   0  0  0  0  0  0  0  0  0  0  0  0
   -9.6406   17.1519   31.3358 O   0  0  0  0  0  0  0  0  0  0  0  0
   -9.2556   17.6766   30.6165 H   0  0  0  0  0  0  0  0  0  0  0  0
   -7.1622   16.3113   26.9790 C   0  0  0  0  0  0  0  0  0  0  0  0
   -7.6275   16.2017   25.5300 C   0  0  0  0  0  0  0  0  0  0  0  0
   -8.3135   17.2315   24.8864 C   0  0  0  0  0  0  0  0  0  0  0  0
   -8.7440   17.1423   23.5704 C   0  0  0  0  0  0  0  0  0  0  0  0
   -7.4032   15.0663   24.7523 C   0  0  0  0  0  0  0  0  0  0  0  0
   -7.8265   14.9624   23.4331 C   0  0  0  0  0  0  0  0  0  0  0  0
   -8.5119   16.0021   22.8062 C   0  0  0  0  0  0  0  0  0  0  0  0
   -8.9264   15.8610   21.3781 C   0  0  0  0  0  0  0  0  0  0  0  0
   -9.6679   14.9995   20.9548 O   0  0  0  0  0  0  0  0  0  0  0  0
   -8.4128   16.8938   20.4951 N   0  0  0  0  0  0  0  0  0  0  0  0
   -8.7818   16.7978   19.2188 O   0  0  0  0  0  0  0  0  0  0  0  0
   -7.8296   17.6179   20.8190 H   0  0  0  0  0  0  0  0  0  0  0  0
   -9.3519   16.0213   19.1046 H   0  0  0  0  0  0  0  0  0  0  0  0
 24 23  1  0  0  0
 22 21  2  0  0  0
 23 21  1  0  0  0
 21 20  1  0  0  0
 20 17  2  0  0  0
 20 19  1  0  0  0
 17 16  1  0  0  0
 19 18  2  0  0  0
 16 15  2  0  0  0
 18 15  1  0  0  0
 15 14  1  0  0  0
 14  2  1  0  0  0
  1  2  2  0  0  0
  2  3  1  0  0  0
  3  4  1  0  0  0
  3 10  1  0  0  0
  4  9  2  0  0  0
  4  5  1  0  0  0
  9  8  1  0  0  0
  5  6  2  0  0  0
 11 10  1  0  0  0
 11 12  1  0  0  0
  6  7  1  0  0  0
  8  7  2  0  0  0
 12 13  1  0  0  0
 23 25  1  0  0  0
 24 26  1  0  0  0
M  END
> <minimizedAffinity>
-7.65871

$$$$
5EF7_5OJ_A_804


 26 27  0  0  0  0  0  0  0  0999 V2000
   -9.1459   17.5231   29.5149 O   0  0  0  0  0  0  0  0  0  0  0  0
   -8.7518   16.4306   29.1532 C   0  0  0  0  0  0  0  0  0  0  0  0
   -9.4959   15.2935   29.5902 N   0  0  0  0  0  0  0  0  0  0  0  0
   -9.1018   13.9260   29.1983 C   0  0  0  0  0  0  0  0  0  0  0  0
   -8.0229   13.2313   29.7967 C   0  0  0  0  0  0  0  0  0  0  0  0
   -7.6833   11.9369   29.4000 C   0  0  0  0  0  0  0  0  0  0  0  0
   -8.4019   11.2721   28.4054 C   0  0  0  0  0  0  0  0  0  0  0  0
   -9.4652   11.9386   27.8141 C   0  0  0  0  0  0  0  0  0  0  0  0
   -9.8101   13.2355   28.1966 C   0  0  0  0  0  0  0  0  0  0  0  0
  -10.7006   15.4149   30.4470 C   0  0  0  0  0  0  0  0  0  0  0  0
  -11.0822   14.0686   31.1625 C   0  0  0  0  0  0  0  0  0  0  0  0
  -12.4707   13.9357   31.0676 O   0  0  0  0  0  0  0  0  0  0  0  0
  -12.8980   14.6979   31.4885 H   0  0  0  0  0  0  0  0  0  0  0  0
   -7.5017   16.3532   28.2569 C   0  0  0  0  0  0  0  0  0  0  0  0
   -7.7304   16.1557   26.7613 C   0  0  0  0  0  0  0  0  0  0  0  0
   -7.4599   14.9482   26.1178 C   0  0  0  0  0  0  0  0  0  0  0  0
   -7.6611   14.7577   24.7583 C   0  0  0  0  0  0  0  0  0  0  0  0
   -8.2207   17.1670   25.9359 C   0  0  0  0  0  0  0  0  0  0  0  0
   -8.4289   16.9912   24.5736 C   0  0  0  0  0  0  0  0  0  0  0  0
   -8.1519   15.7770   23.9471 C   0  0  0  0  0  0  0  0  0  0  0  0
   -8.4150   15.6208   22.4850 C   0  0  0  0  0  0  0  0  0  0  0  0
   -8.3361   14.5750   21.8758 O   0  0  0  0  0  0  0  0  0  0  0  0
   -8.8446   16.8360   21.8152 N   0  0  0  0  0  0  0  0  0  0  0  0
   -9.1003   16.7178   20.5133 O   0  0  0  0  0  0  0  0  0  0  0  0
   -8.9406   17.6917   22.2926 H   0  0  0  0  0  0  0  0  0  0  0  0
   -8.9467   15.8013   20.2355 H   0  0  0  0  0  0  0  0  0  0  0  0
 24 23  1  0  0  0
 22 21  2  0  0  0
 23 21  1  0  0  0
 21 20  1  0  0  0
 20 17  2  0  0  0
 20 19  1  0  0  0
 17 16  1  0  0  0
 19 18  2  0  0  0
 16 15  2  0  0  0
 18 15  1  0  0  0
 15 14  1  0  0  0
 14  2  1  0  0  0
  1  2  2  0  0  0
  2  3  1  0  0  0
  3  4  1  0  0  0
  3 10  1  0  0  0
  4  9  2  0  0  0
  4  5  1  0  0  0
  9  8  1  0  0  0
  5  6  2  0  0  0
 11 10  1  0  0  0
 11 12  1  0  0  0
  6  7  1  0  0  0
  8  7  2  0  0  0
 12 13  1  0  0  0
 23 25  1  0  0  0
 24 26  1  0  0  0
M  END
> <minimizedAffinity>
-7.57782

$$$$
5EF7_5OJ_A_804


 26 27  0  0  0  0  0  0  0  0999 V2000
   -6.1330   16.2788   29.3409 O   0  0  0  0  0  0  0  0  0  0  0  0
   -7.1921   15.6944   29.2127 C   0  0  0  0  0  0  0  0  0  0  0  0
   -7.2995   14.4039   29.8136 N   0  0  0  0  0  0  0  0  0  0  0  0
   -8.5462   13.6191   29.7199 C   0  0  0  0  0  0  0  0  0  0  0  0
   -9.7197   13.9434   30.4425 C   0  0  0  0  0  0  0  0  0  0  0  0
  -10.8805   13.1774   30.3241 C   0  0  0  0  0  0  0  0  0  0  0  0
  -10.9332   12.0680   29.4792 C   0  0  0  0  0  0  0  0  0  0  0  0
   -9.7923   11.7417   28.7606 C   0  0  0  0  0  0  0  0  0  0  0  0
   -8.6234   12.4951   28.8758 C   0  0  0  0  0  0  0  0  0  0  0  0
   -6.1823   13.7838   30.5667 C   0  0  0  0  0  0  0  0  0  0  0  0
   -6.2314   14.0982   32.1059 C   0  0  0  0  0  0  0  0  0  0  0  0
   -5.5645   15.3121   32.2956 O   0  0  0  0  0  0  0  0  0  0  0  0
   -4.6522   15.2333   31.9758 H   0  0  0  0  0  0  0  0  0  0  0  0
   -8.3272   16.3805   28.4301 C   0  0  0  0  0  0  0  0  0  0  0  0
   -8.3417   16.1894   26.9163 C   0  0  0  0  0  0  0  0  0  0  0  0
   -8.2619   14.9300   26.3222 C   0  0  0  0  0  0  0  0  0  0  0  0
   -8.2712   14.7439   24.9473 C   0  0  0  0  0  0  0  0  0  0  0  0
   -8.4316   17.2575   26.0246 C   0  0  0  0  0  0  0  0  0  0  0  0
   -8.4437   17.0874   24.6458 C   0  0  0  0  0  0  0  0  0  0  0  0
   -8.3621   15.8205   24.0695 C   0  0  0  0  0  0  0  0  0  0  0  0
   -8.4053   15.6787   22.5831 C   0  0  0  0  0  0  0  0  0  0  0  0
   -8.1310   14.6647   21.9767 O   0  0  0  0  0  0  0  0  0  0  0  0
   -8.8692   16.8601   21.8766 N   0  0  0  0  0  0  0  0  0  0  0  0
   -8.9310   16.7523   20.5504 O   0  0  0  0  0  0  0  0  0  0  0  0
   -9.1216   17.6870   22.3476 H   0  0  0  0  0  0  0  0  0  0  0  0
   -8.6423   15.8653   20.2843 H   0  0  0  0  0  0  0  0  0  0  0  0
 24 23  1  0  0  0
 22 21  2  0  0  0
 23 21  1  0  0  0
 21 20  1  0  0  0
 20 17  2  0  0  0
 20 19  1  0  0  0
 17 16  1  0  0  0
 19 18  2  0  0  0
 16 15  2  0  0  0
 18 15  1  0  0  0
 15 14  1  0  0  0
 14  2  1  0  0  0
  1  2  2  0  0  0
  2  3  1  0  0  0
  3  4  1  0  0  0
  3 10  1  0  0  0
  4  9  2  0  0  0
  4  5  1  0  0  0
  9  8  1  0  0  0
  5  6  2  0  0  0
 11 10  1  0  0  0
 11 12  1  0  0  0
  6  7  1  0  0  0
  8  7  2  0  0  0
 12 13  1  0  0  0
 23 25  1  0  0  0
 24 26  1  0  0  0
M  END
> <minimizedAffinity>
-7.36635

$$$$
5EF7_5OJ_A_804


 26 27  0  0  0  0  0  0  0  0999 V2000
   -8.8928   15.1020   29.4089 O   0  0  0  0  0  0  0  0  0  0  0  0
   -7.9468   15.5838   28.8151 C   0  0  0  0  0  0  0  0  0  0  0  0
   -6.6686   14.9877   29.0356 N   0  0  0  0  0  0  0  0  0  0  0  0
   -5.4611   15.4959   28.3555 C   0  0  0  0  0  0  0  0  0  0  0  0
   -4.8391   16.7209   28.6979 C   0  0  0  0  0  0  0  0  0  0  0  0
   -3.6957   17.1656   28.0324 C   0  0  0  0  0  0  0  0  0  0  0  0
   -3.1137   16.4141   27.0106 C   0  0  0  0  0  0  0  0  0  0  0  0
   -3.7093   15.2089   26.6682 C   0  0  0  0  0  0  0  0  0  0  0  0
   -4.8568   14.7567   27.3209 C   0  0  0  0  0  0  0  0  0  0  0  0
   -6.4788   13.8304   29.9436 C   0  0  0  0  0  0  0  0  0  0  0  0
   -6.0124   14.2514   31.3842 C   0  0  0  0  0  0  0  0  0  0  0  0
   -7.0330   15.0354   31.9304 O   0  0  0  0  0  0  0  0  0  0  0  0
   -7.1856   15.8079   31.3640 H   0  0  0  0  0  0  0  0  0  0  0  0
   -8.1924   16.7794   27.8758 C   0  0  0  0  0  0  0  0  0  0  0  0
   -8.2834   16.4820   26.3820 C   0  0  0  0  0  0  0  0  0  0  0  0
   -8.2595   15.1822   25.8768 C   0  0  0  0  0  0  0  0  0  0  0  0
   -8.3386   14.8996   24.5208 C   0  0  0  0  0  0  0  0  0  0  0  0
   -8.3926   17.4863   25.4209 C   0  0  0  0  0  0  0  0  0  0  0  0
   -8.4743   17.2194   24.0599 C   0  0  0  0  0  0  0  0  0  0  0  0
   -8.4480   15.9133   23.5730 C   0  0  0  0  0  0  0  0  0  0  0  0
   -8.5653   15.6677   22.1042 C   0  0  0  0  0  0  0  0  0  0  0  0
   -8.4540   14.5830   21.5731 O   0  0  0  0  0  0  0  0  0  0  0  0
   -8.8904   16.8457   21.3188 N   0  0  0  0  0  0  0  0  0  0  0  0
   -9.0155   16.6483   20.0074 O   0  0  0  0  0  0  0  0  0  0  0  0
   -9.0104   17.7325   21.7291 H   0  0  0  0  0  0  0  0  0  0  0  0
   -8.8601   15.7125   19.8050 H   0  0  0  0  0  0  0  0  0  0  0  0
 24 23  1  0  0  0
 22 21  2  0  0  0
 23 21  1  0  0  0
 21 20  1  0  0  0
 20 17  2  0  0  0
 20 19  1  0  0  0
 17 16  1  0  0  0
 19 18  2  0  0  0
 16 15  2  0  0  0
 18 15  1  0  0  0
 15 14  1  0  0  0
 14  2  1  0  0  0
  1  2  2  0  0  0
  2  3  1  0  0  0
  3  4  1  0  0  0
  3 10  1  0  0  0
  4  9  2  0  0  0
  4  5  1  0  0  0
  9  8  1  0  0  0
  5  6  2  0  0  0
 11 10  1  0  0  0
 11 12  1  0  0  0
  6  7  1  0  0  0
  8  7  2  0  0  0
 12 13  1  0  0  0
 23 25  1  0  0  0
 24 26  1  0  0  0
M  END
> <minimizedAffinity>
-7.34981

$$$$
5EF7_5OJ_A_804


 26 27  0  0  0  0  0  0  0  0999 V2000
   -7.6040   18.3180   29.8986 O   0  0  0  0  0  0  0  0  0  0  0  0
   -7.2701   17.2348   29.4574 C   0  0  0  0  0  0  0  0  0  0  0  0
   -5.8878   16.8914   29.5538 N   0  0  0  0  0  0  0  0  0  0  0  0
   -5.3858   15.5965   29.0538 C   0  0  0  0  0  0  0  0  0  0  0  0
   -4.7544   15.4462   27.7954 C   0  0  0  0  0  0  0  0  0  0  0  0
   -4.2901   14.2043   27.3595 C   0  0  0  0  0  0  0  0  0  0  0  0
   -4.4197   13.0634   28.1526 C   0  0  0  0  0  0  0  0  0  0  0  0
   -5.0313   13.1967   29.3907 C   0  0  0  0  0  0  0  0  0  0  0  0
   -5.5063   14.4314   29.8347 C   0  0  0  0  0  0  0  0  0  0  0  0
   -4.8852   17.7994   30.1623 C   0  0  0  0  0  0  0  0  0  0  0  0
   -4.2653   18.8085   29.1291 C   0  0  0  0  0  0  0  0  0  0  0  0
   -5.1753   18.9225   28.0739 O   0  0  0  0  0  0  0  0  0  0  0  0
   -5.3215   18.0494   27.6773 H   0  0  0  0  0  0  0  0  0  0  0  0
   -8.3468   16.3211   28.8425 C   0  0  0  0  0  0  0  0  0  0  0  0
   -8.3246   16.1436   27.3272 C   0  0  0  0  0  0  0  0  0  0  0  0
   -8.3459   17.2265   26.4484 C   0  0  0  0  0  0  0  0  0  0  0  0
   -8.3290   17.0775   25.0691 C   0  0  0  0  0  0  0  0  0  0  0  0
   -8.2854   14.8901   26.7177 C   0  0  0  0  0  0  0  0  0  0  0  0
   -8.2664   14.7247   25.3384 C   0  0  0  0  0  0  0  0  0  0  0  0
   -8.2891   15.8191   24.4751 C   0  0  0  0  0  0  0  0  0  0  0  0
   -8.2405   15.5990   22.9985 C   0  0  0  0  0  0  0  0  0  0  0  0
   -7.7843   14.6121   22.4608 O   0  0  0  0  0  0  0  0  0  0  0  0
   -8.8486   16.6564   22.2096 N   0  0  0  0  0  0  0  0  0  0  0  0
   -8.8312   16.4748   20.8901 O   0  0  0  0  0  0  0  0  0  0  0  0
   -9.2479   17.4555   22.6234 H   0  0  0  0  0  0  0  0  0  0  0  0
   -8.3963   15.6323   20.6854 H   0  0  0  0  0  0  0  0  0  0  0  0
 24 23  1  0  0  0
 22 21  2  0  0  0
 23 21  1  0  0  0
 21 20  1  0  0  0
 20 17  2  0  0  0
 20 19  1  0  0  0
 17 16  1  0  0  0
 19 18  2  0  0  0
 16 15  2  0  0  0
 18 15  1  0  0  0
 15 14  1  0  0  0
 14  2  1  0  0  0
  1  2  2  0  0  0
  2  3  1  0  0  0
  3  4  1  0  0  0
  3 10  1  0  0  0
  4  9  2  0  0  0
  4  5  1  0  0  0
  9  8  1  0  0  0
  5  6  2  0  0  0
 11 10  1  0  0  0
 11 12  1  0  0  0
  6  7  1  0  0  0
  8  7  2  0  0  0
 12 13  1  0  0  0
 23 25  1  0  0  0
 24 26  1  0  0  0
M  END
> <minimizedAffinity>
-7.25131

$$$$
5EF7_5OJ_A_804


 26 27  0  0  0  0  0  0  0  0999 V2000
   -6.4220   17.7740   26.8761 O   0  0  0  0  0  0  0  0  0  0  0  0
   -6.6488   16.6433   27.2629 C   0  0  0  0  0  0  0  0  0  0  0  0
   -5.7145   16.0690   28.1769 N   0  0  0  0  0  0  0  0  0  0  0  0
   -5.9060   14.7056   28.7090 C   0  0  0  0  0  0  0  0  0  0  0  0
   -5.3983   13.5484   28.0704 C   0  0  0  0  0  0  0  0  0  0  0  0
   -5.5981   12.2757   28.6076 C   0  0  0  0  0  0  0  0  0  0  0  0
   -6.2967   12.0951   29.8021 C   0  0  0  0  0  0  0  0  0  0  0  0
   -6.7951   13.2207   30.4418 C   0  0  0  0  0  0  0  0  0  0  0  0
   -6.6084   14.4977   29.9112 C   0  0  0  0  0  0  0  0  0  0  0  0
   -4.5137   16.8008   28.6485 C   0  0  0  0  0  0  0  0  0  0  0  0
   -4.8182   17.7701   29.8476 C   0  0  0  0  0  0  0  0  0  0  0  0
   -5.3566   18.9387   29.3008 O   0  0  0  0  0  0  0  0  0  0  0  0
   -4.7213   19.3274   28.6793 H   0  0  0  0  0  0  0  0  0  0  0  0
   -7.9124   15.9252   26.7534 C   0  0  0  0  0  0  0  0  0  0  0  0
   -8.1323   15.8933   25.2438 C   0  0  0  0  0  0  0  0  0  0  0  0
   -8.7286   16.9486   24.5539 C   0  0  0  0  0  0  0  0  0  0  0  0
   -8.9364   16.9299   23.1823 C   0  0  0  0  0  0  0  0  0  0  0  0
   -7.7569   14.8085   24.4522 C   0  0  0  0  0  0  0  0  0  0  0  0
   -7.9567   14.7755   23.0777 C   0  0  0  0  0  0  0  0  0  0  0  0
   -8.5555   15.8397   22.4050 C   0  0  0  0  0  0  0  0  0  0  0  0
   -8.7279   15.7760   20.9226 C   0  0  0  0  0  0  0  0  0  0  0  0
   -9.4341   14.9790   20.3419 O   0  0  0  0  0  0  0  0  0  0  0  0
   -8.0135   16.8045   20.1864 N   0  0  0  0  0  0  0  0  0  0  0  0
   -8.1646   16.7775   18.8633 O   0  0  0  0  0  0  0  0  0  0  0  0
   -7.4540   17.4781   20.6364 H   0  0  0  0  0  0  0  0  0  0  0  0
   -8.7501   16.0435   18.6196 H   0  0  0  0  0  0  0  0  0  0  0  0
 24 23  1  0  0  0
 22 21  2  0  0  0
 23 21  1  0  0  0
 21 20  1  0  0  0
 20 17  2  0  0  0
 20 19  1  0  0  0
 17 16  1  0  0  0
 19 18  2  0  0  0
 16 15  2  0  0  0
 18 15  1  0  0  0
 15 14  1  0  0  0
 14  2  1  0  0  0
  1  2  2  0  0  0
  2  3  1  0  0  0
  3  4  1  0  0  0
  3 10  1  0  0  0
  4  9  2  0  0  0
  4  5  1  0  0  0
  9  8  1  0  0  0
  5  6  2  0  0  0
 11 10  1  0  0  0
 11 12  1  0  0  0
  6  7  1  0  0  0
  8  7  2  0  0  0
 12 13  1  0  0  0
 23 25  1  0  0  0
 24 26  1  0  0  0
M  END
> <minimizedAffinity>
-6.84052

$$$$
5EF7_5OJ_A_804


 26 27  0  0  0  0  0  0  0  0999 V2000
   -6.4068   13.1346   28.2393 O   0  0  0  0  0  0  0  0  0  0  0  0
   -7.1179   13.7172   27.4427 C   0  0  0  0  0  0  0  0  0  0  0  0
   -6.5138   14.7528   26.6678 N   0  0  0  0  0  0  0  0  0  0  0  0
   -7.2917   15.5126   25.6696 C   0  0  0  0  0  0  0  0  0  0  0  0
   -7.7289   14.9556   24.4435 C   0  0  0  0  0  0  0  0  0  0  0  0
   -8.4658   15.7066   23.5265 C   0  0  0  0  0  0  0  0  0  0  0  0
   -8.8107   17.0333   23.7876 C   0  0  0  0  0  0  0  0  0  0  0  0
   -8.3939   17.5906   24.9878 C   0  0  0  0  0  0  0  0  0  0  0  0
   -7.6504   16.8526   25.9096 C   0  0  0  0  0  0  0  0  0  0  0  0
   -5.0835   15.1189   26.8103 C   0  0  0  0  0  0  0  0  0  0  0  0
   -4.8179   16.0977   28.0109 C   0  0  0  0  0  0  0  0  0  0  0  0
   -4.4757   15.3081   29.1127 O   0  0  0  0  0  0  0  0  0  0  0  0
   -5.1998   14.6925   29.3068 H   0  0  0  0  0  0  0  0  0  0  0  0
   -8.5948   13.2974   27.3225 C   0  0  0  0  0  0  0  0  0  0  0  0
   -9.4279   13.3138   28.6007 C   0  0  0  0  0  0  0  0  0  0  0  0
   -9.4240   14.3960   29.4805 C   0  0  0  0  0  0  0  0  0  0  0  0
  -10.1748   14.4212   30.6469 C   0  0  0  0  0  0  0  0  0  0  0  0
  -10.2455   12.2494   28.9788 C   0  0  0  0  0  0  0  0  0  0  0  0
  -11.0043   12.2602   30.1425 C   0  0  0  0  0  0  0  0  0  0  0  0
  -10.9872   13.3508   31.0108 C   0  0  0  0  0  0  0  0  0  0  0  0
  -11.8383   13.3340   32.2382 C   0  0  0  0  0  0  0  0  0  0  0  0
  -12.3746   14.3086   32.7216 O   0  0  0  0  0  0  0  0  0  0  0  0
  -12.0423   12.0160   32.8140 N   0  0  0  0  0  0  0  0  0  0  0  0
  -12.8111   11.9738   33.9009 O   0  0  0  0  0  0  0  0  0  0  0  0
  -11.6384   11.2064   32.4259 H   0  0  0  0  0  0  0  0  0  0  0  0
  -13.1089   12.8703   34.1213 H   0  0  0  0  0  0  0  0  0  0  0  0
 24 23  1  0  0  0
 22 21  2  0  0  0
 23 21  1  0  0  0
 21 20  1  0  0  0
 20 17  2  0  0  0
 20 19  1  0  0  0
 17 16  1  0  0  0
 19 18  2  0  0  0
 16 15  2  0  0  0
 18 15  1  0  0  0
 15 14  1  0  0  0
 14  2  1  0  0  0
  1  2  2  0  0  0
  2  3  1  0  0  0
  3  4  1  0  0  0
  3 10  1  0  0  0
  4  9  2  0  0  0
  4  5  1  0  0  0
  9  8  1  0  0  0
  5  6  2  0  0  0
 11 10  1  0  0  0
 11 12  1  0  0  0
  6  7  1  0  0  0
  8  7  2  0  0  0
 12 13  1  0  0  0
 23 25  1  0  0  0
 24 26  1  0  0  0
M  END
> <minimizedAffinity>
-6.64677

$$$$
5EF7_5OJ_A_804


 26 27  0  0  0  0  0  0  0  0999 V2000
   -7.6149   17.8728   29.9477 O   0  0  0  0  0  0  0  0  0  0  0  0
   -7.0294   16.9737   29.3748 C   0  0  0  0  0  0  0  0  0  0  0  0
   -5.6043   17.0477   29.3344 N   0  0  0  0  0  0  0  0  0  0  0  0
   -4.8036   16.0012   28.6692 C   0  0  0  0  0  0  0  0  0  0  0  0
   -4.3997   14.8086   29.3167 C   0  0  0  0  0  0  0  0  0  0  0  0
   -3.6452   13.8409   28.6518 C   0  0  0  0  0  0  0  0  0  0  0  0
   -3.2690   14.0059   27.3181 C   0  0  0  0  0  0  0  0  0  0  0  0
   -3.6625   15.1672   26.6691 C   0  0  0  0  0  0  0  0  0  0  0  0
   -4.4108   16.1455   27.3251 C   0  0  0  0  0  0  0  0  0  0  0  0
   -4.8497   18.1622   29.9576 C   0  0  0  0  0  0  0  0  0  0  0  0
   -4.4531   17.8745   31.4509 C   0  0  0  0  0  0  0  0  0  0  0  0
   -5.5265   18.2887   32.2451 O   0  0  0  0  0  0  0  0  0  0  0  0
   -5.6944   19.2322   32.0952 H   0  0  0  0  0  0  0  0  0  0  0  0
   -7.8536   15.8324   28.7501 C   0  0  0  0  0  0  0  0  0  0  0  0
   -8.0923   15.8917   27.2442 C   0  0  0  0  0  0  0  0  0  0  0  0
   -8.3316   14.7492   26.4808 C   0  0  0  0  0  0  0  0  0  0  0  0
   -8.5472   14.7903   25.1109 C   0  0  0  0  0  0  0  0  0  0  0  0
   -8.0841   17.0882   26.5283 C   0  0  0  0  0  0  0  0  0  0  0  0
   -8.2998   17.1459   25.1570 C   0  0  0  0  0  0  0  0  0  0  0  0
   -8.5366   15.9930   24.4099 C   0  0  0  0  0  0  0  0  0  0  0  0
   -8.7904   16.1008   22.9418 C   0  0  0  0  0  0  0  0  0  0  0  0
   -9.1286   17.1161   22.3709 O   0  0  0  0  0  0  0  0  0  0  0  0
   -8.5438   14.8796   22.1947 N   0  0  0  0  0  0  0  0  0  0  0  0
   -8.7485   14.9557   20.8807 O   0  0  0  0  0  0  0  0  0  0  0  0
   -8.2448   14.0495   22.6313 H   0  0  0  0  0  0  0  0  0  0  0  0
   -9.0380   15.8523   20.6500 H   0  0  0  0  0  0  0  0  0  0  0  0
 24 23  1  0  0  0
 22 21  2  0  0  0
 23 21  1  0  0  0
 21 20  1  0  0  0
 20 17  2  0  0  0
 20 19  1  0  0  0
 17 16  1  0  0  0
 19 18  2  0  0  0
 16 15  2  0  0  0
 18 15  1  0  0  0
 15 14  1  0  0  0
 14  2  1  0  0  0
  1  2  2  0  0  0
  2  3  1  0  0  0
  3  4  1  0  0  0
  3 10  1  0  0  0
  4  9  2  0  0  0
  4  5  1  0  0  0
  9  8  1  0  0  0
  5  6  2  0  0  0
 11 10  1  0  0  0
 11 12  1  0  0  0
  6  7  1  0  0  0
  8  7  2  0  0  0
 12 13  1  0  0  0
 23 25  1  0  0  0
 24 26  1  0  0  0
M  END
> <minimizedAffinity>
-6.59204

$$$$
