4XU3_44R_A_301


 40 43  0  0  0  0  0  0  0  0999 V2000
   -3.8042   -4.8676    6.2194 S   0  0  0  0  0  0  0  0  0  0  0  0
   -4.3208   -5.2520    4.9352 O   0  0  0  0  0  0  0  0  0  0  0  0
   -2.3959   -4.6174    6.0918 O   0  0  0  0  0  0  0  0  0  0  0  0
   -3.9462   -5.8078    8.5982 C   0  0  0  0  0  0  0  0  0  0  0  0
   -3.4248   -4.8138    9.0743 O   0  0  0  0  0  0  0  0  0  0  0  0
   -4.0537   -6.0344    7.2897 N   0  0  0  0  0  0  0  0  0  0  0  0
   -4.2911   -6.9362    6.9740 H   0  0  0  0  0  0  0  0  0  0  0  0
   -4.5210   -6.8632    9.5111 C   0  0  0  0  0  0  0  0  0  0  0  0
   -3.4920   -7.2521   10.5639 C   0  0  0  0  0  0  0  0  0  0  0  0
   -4.1763   -7.9026   11.7578 C   0  0  0  0  0  0  0  0  0  0  0  0
   -3.3173   -7.8089   13.0124 C   0  0  0  0  0  0  0  0  0  0  0  0
   -2.5609  -10.0783   13.8374 C   0  0  0  0  0  0  0  0  0  0  0  0
   -1.2870   -9.5552   13.3814 N   0  0  0  0  0  0  0  0  0  0  0  0
   -0.3094   -9.8294   14.2408 C   0  0  0  0  0  0  0  0  0  0  0  0
    0.8469   -9.4531   14.1326 O   0  0  0  0  0  0  0  0  0  0  0  0
   -0.7654  -10.5580   15.2498 N   0  0  0  0  0  0  0  0  0  0  0  0
   -2.2063  -10.6549   15.2093 C   0  0  0  0  0  0  0  0  0  0  0  0
   -2.7596   -9.8194   16.3522 C   0  0  0  0  0  0  0  0  0  0  0  0
   -3.6480   -8.5037   15.6107 S   0  0  0  0  0  0  0  0  0  0  0  0
   -3.6238   -8.9878   13.9237 C   0  0  0  0  0  0  0  0  0  0  0  0
   -1.1616   -9.0589   12.5404 H   0  0  0  0  0  0  0  0  0  0  0  0
   -0.1975  -10.9775   15.9359 H   0  0  0  0  0  0  0  0  0  0  0  0
   -4.5040   -3.5103    6.6901 N   0  0  0  0  0  0  0  0  0  0  0  0
   -4.8413   -3.6701    7.6393 H   0  0  0  0  0  0  0  0  0  0  0  0
   -3.7606   -2.2687    6.7186 C   0  0  0  0  0  0  0  0  0  0  0  0
   -4.6921   -1.0689    6.6169 C   0  0  0  0  0  0  0  0  0  0  0  0
   -5.7561   -1.2640    7.5417 O   0  0  0  0  0  0  0  0  0  0  0  0
   -6.2624   -0.0417    8.0695 C   0  0  0  0  0  0  0  0  0  0  0  0
   -3.0318   -0.2495   11.1118 C   0  0  0  0  0  0  0  0  0  0  0  0
   -5.2284   -0.2508   10.3224 C   0  0  0  0  0  0  0  0  0  0  0  0
   -5.6908   -0.3998   11.6180 C   0  0  0  0  0  0  0  0  0  0  0  0
   -4.7744   -0.4762   12.6562 C   0  0  0  0  0  0  0  0  0  0  0  0
   -3.4553   -0.3999   12.3755 N   0  0  0  0  0  0  0  0  0  0  0  0
   -3.8962   -0.1734   10.0915 N   0  0  0  0  0  0  0  0  0  0  0  0
   -7.3972   -0.3174   10.2706 C   0  0  0  0  0  0  0  0  0  0  0  0
   -6.2933   -0.1983    9.5203 N   0  0  0  0  0  0  0  0  0  0  0  0
   -7.0368   -0.4413   11.5668 N   0  0  0  0  0  0  0  0  0  0  0  0
   -5.1988   -0.6248   13.9349 N   0  0  0  0  0  0  0  0  0  0  0  0
   -6.1621   -0.6795   14.1306 H   0  0  0  0  0  0  0  0  0  0  0  0
   -4.5438   -0.6780   14.6679 H   0  0  0  0  0  0  0  0  0  0  0  0
  3  1  2  0  0  0
  2  1  2  0  0  0
  1 23  1  0  0  0
  1  6  1  0  0  0
 23 25  1  0  0  0
  6  4  1  0  0  0
 25 26  1  0  0  0
  4  5  2  0  0  0
  4  8  1  0  0  0
 26 27  1  0  0  0
 27 28  1  0  0  0
  8  9  1  0  0  0
 28 36  1  0  0  0
  9 10  1  0  0  0
 36 30  1  0  0  0
 36 35  1  0  0  0
 34 30  2  0  0  0
 34 29  1  0  0  0
 10 11  1  0  0  0
 30 31  1  0  0  0
 35 37  2  0  0  0
 29 33  2  0  0  0
 31 37  1  0  0  0
 31 32  2  0  0  0
 11 20  1  0  0  0
 33 32  1  0  0  0
 13 12  1  0  0  0
 13 14  1  0  0  0
 32 38  1  0  0  0
 12 20  1  0  0  0
 12 17  1  0  0  0
 20 19  1  0  0  0
 15 14  2  0  0  0
 14 16  1  0  0  0
 17 16  1  0  0  0
 17 18  1  0  0  0
 19 18  1  0  0  0
 13 21  1  0  0  0
 16 22  1  0  0  0
  6  7  1  0  0  0
 23 24  1  0  0  0
 38 39  1  0  0  0
 38 40  1  0  0  0
M  END
> <minimizedAffinity>
-11.22042

$$$$
4XU3_44R_A_301


 40 43  0  0  0  0  0  0  0  0999 V2000
   -3.9305   -4.7481    6.4413 S   0  0  0  0  0  0  0  0  0  0  0  0
   -4.7543   -4.7390    5.2646 O   0  0  0  0  0  0  0  0  0  0  0  0
   -2.5533   -4.6920    6.0382 O   0  0  0  0  0  0  0  0  0  0  0  0
   -3.9849   -6.1140    8.6080 C   0  0  0  0  0  0  0  0  0  0  0  0
   -3.3634   -5.2610    9.2185 O   0  0  0  0  0  0  0  0  0  0  0  0
   -4.1934   -6.0806    7.2924 N   0  0  0  0  0  0  0  0  0  0  0  0
   -4.5153   -6.8903    6.8342 H   0  0  0  0  0  0  0  0  0  0  0  0
   -4.5738   -7.2883    9.3508 C   0  0  0  0  0  0  0  0  0  0  0  0
   -3.6103   -7.7493   10.4359 C   0  0  0  0  0  0  0  0  0  0  0  0
   -4.2592   -7.6254   11.8073 C   0  0  0  0  0  0  0  0  0  0  0  0
   -3.2298   -7.7426   12.9242 C   0  0  0  0  0  0  0  0  0  0  0  0
   -2.5588  -10.0433   13.7362 C   0  0  0  0  0  0  0  0  0  0  0  0
   -1.2623   -9.5573   13.3034 N   0  0  0  0  0  0  0  0  0  0  0  0
   -0.3064   -9.8715   14.1735 C   0  0  0  0  0  0  0  0  0  0  0  0
    0.8628   -9.5318   14.0854 O   0  0  0  0  0  0  0  0  0  0  0  0
   -0.8001  -10.5948   15.1685 N   0  0  0  0  0  0  0  0  0  0  0  0
   -2.2426  -10.6446   15.1069 C   0  0  0  0  0  0  0  0  0  0  0  0
   -2.7849   -9.8028   16.2506 C   0  0  0  0  0  0  0  0  0  0  0  0
   -3.6197   -8.4518   15.5103 S   0  0  0  0  0  0  0  0  0  0  0  0
   -3.5871   -8.9198   13.8189 C   0  0  0  0  0  0  0  0  0  0  0  0
   -1.1090   -9.0571   12.4694 H   0  0  0  0  0  0  0  0  0  0  0  0
   -0.2559  -11.0391   15.8582 H   0  0  0  0  0  0  0  0  0  0  0  0
   -4.2395   -3.4480    7.3176 N   0  0  0  0  0  0  0  0  0  0  0  0
   -3.7567   -3.5743    8.2071 H   0  0  0  0  0  0  0  0  0  0  0  0
   -3.8809   -2.1312    6.8354 C   0  0  0  0  0  0  0  0  0  0  0  0
   -2.8027   -1.5025    7.7070 C   0  0  0  0  0  0  0  0  0  0  0  0
   -3.2943   -1.4555    9.0417 O   0  0  0  0  0  0  0  0  0  0  0  0
   -3.3485   -0.1321    9.5658 C   0  0  0  0  0  0  0  0  0  0  0  0
   -7.6815   -0.4715   10.4854 C   0  0  0  0  0  0  0  0  0  0  0  0
   -5.4016   -0.3104   10.9592 C   0  0  0  0  0  0  0  0  0  0  0  0
   -5.6816   -0.3701   12.3129 C   0  0  0  0  0  0  0  0  0  0  0  0
   -7.0017   -0.4781   12.7240 C   0  0  0  0  0  0  0  0  0  0  0  0
   -7.9786   -0.5252   11.7922 N   0  0  0  0  0  0  0  0  0  0  0  0
   -6.4149   -0.3670   10.0624 N   0  0  0  0  0  0  0  0  0  0  0  0
   -3.5280   -0.2066   12.0499 C   0  0  0  0  0  0  0  0  0  0  0  0
   -4.0772   -0.2158   10.8276 N   0  0  0  0  0  0  0  0  0  0  0  0
   -4.5092   -0.3024   12.9738 N   0  0  0  0  0  0  0  0  0  0  0  0
   -7.3056   -0.5360   14.0437 N   0  0  0  0  0  0  0  0  0  0  0  0
   -6.5875   -0.5010   14.7162 H   0  0  0  0  0  0  0  0  0  0  0  0
   -8.2445   -0.6130   14.3297 H   0  0  0  0  0  0  0  0  0  0  0  0
  3  1  2  0  0  0
  2  1  2  0  0  0
  1 23  1  0  0  0
  1  6  1  0  0  0
 23 25  1  0  0  0
  6  4  1  0  0  0
 25 26  1  0  0  0
  4  5  2  0  0  0
  4  8  1  0  0  0
 26 27  1  0  0  0
 27 28  1  0  0  0
  8  9  1  0  0  0
 28 36  1  0  0  0
  9 10  1  0  0  0
 36 30  1  0  0  0
 36 35  1  0  0  0
 34 30  2  0  0  0
 34 29  1  0  0  0
 10 11  1  0  0  0
 30 31  1  0  0  0
 35 37  2  0  0  0
 29 33  2  0  0  0
 31 37  1  0  0  0
 31 32  2  0  0  0
 11 20  1  0  0  0
 33 32  1  0  0  0
 13 12  1  0  0  0
 13 14  1  0  0  0
 32 38  1  0  0  0
 12 20  1  0  0  0
 12 17  1  0  0  0
 20 19  1  0  0  0
 15 14  2  0  0  0
 14 16  1  0  0  0
 17 16  1  0  0  0
 17 18  1  0  0  0
 19 18  1  0  0  0
 13 21  1  0  0  0
 16 22  1  0  0  0
  6  7  1  0  0  0
 23 24  1  0  0  0
 38 39  1  0  0  0
 38 40  1  0  0  0
M  END
> <minimizedAffinity>
-11.16300

$$$$
4XU3_44R_A_301


 40 43  0  0  0  0  0  0  0  0999 V2000
   -3.4389   -4.1616    6.9033 S   0  0  0  0  0  0  0  0  0  0  0  0
   -4.5891   -4.1973    6.0434 O   0  0  0  0  0  0  0  0  0  0  0  0
   -2.2728   -4.4688    6.1236 O   0  0  0  0  0  0  0  0  0  0  0  0
   -4.4485   -6.2513    7.9882 C   0  0  0  0  0  0  0  0  0  0  0  0
   -5.3269   -6.3236    7.1457 O   0  0  0  0  0  0  0  0  0  0  0  0
   -3.5978   -5.2306    8.0871 N   0  0  0  0  0  0  0  0  0  0  0  0
   -3.0562   -5.1311    8.9032 H   0  0  0  0  0  0  0  0  0  0  0  0
   -4.2782   -7.3658    8.9914 C   0  0  0  0  0  0  0  0  0  0  0  0
   -3.7807   -6.7990   10.3142 C   0  0  0  0  0  0  0  0  0  0  0  0
   -4.1724   -7.7164   11.4639 C   0  0  0  0  0  0  0  0  0  0  0  0
   -2.9555   -8.4076   12.0656 C   0  0  0  0  0  0  0  0  0  0  0  0
   -2.3351  -10.3491   13.5652 C   0  0  0  0  0  0  0  0  0  0  0  0
   -1.0059   -9.9032   13.1926 N   0  0  0  0  0  0  0  0  0  0  0  0
   -0.1804   -9.9004   14.2357 C   0  0  0  0  0  0  0  0  0  0  0  0
    0.9767   -9.5117   14.2146 O   0  0  0  0  0  0  0  0  0  0  0  0
   -0.7920  -10.3637   15.3165 N   0  0  0  0  0  0  0  0  0  0  0  0
   -2.2066  -10.5345   15.0783 C   0  0  0  0  0  0  0  0  0  0  0  0
   -2.9419   -9.4585   15.8607 C   0  0  0  0  0  0  0  0  0  0  0  0
   -3.7024   -8.4217   14.6704 S   0  0  0  0  0  0  0  0  0  0  0  0
   -3.4019   -9.3238   13.1949 C   0  0  0  0  0  0  0  0  0  0  0  0
   -0.7470   -9.6359   12.2812 H   0  0  0  0  0  0  0  0  0  0  0  0
   -0.3419  -10.5648   16.1687 H   0  0  0  0  0  0  0  0  0  0  0  0
   -3.2612   -2.6874    7.4937 N   0  0  0  0  0  0  0  0  0  0  0  0
   -3.5790   -2.0430    6.7697 H   0  0  0  0  0  0  0  0  0  0  0  0
   -3.9292   -2.2973    8.7171 C   0  0  0  0  0  0  0  0  0  0  0  0
   -5.1091   -1.3793    8.4294 C   0  0  0  0  0  0  0  0  0  0  0  0
   -4.5936   -0.1536    7.9221 O   0  0  0  0  0  0  0  0  0  0  0  0
   -5.5633    0.5977    7.1980 C   0  0  0  0  0  0  0  0  0  0  0  0
   -9.2623   -0.8024    5.1750 C   0  0  0  0  0  0  0  0  0  0  0  0
   -6.9669   -0.4800    5.4496 C   0  0  0  0  0  0  0  0  0  0  0  0
   -6.7359   -1.1185    4.2439 C   0  0  0  0  0  0  0  0  0  0  0  0
   -7.8154   -1.5999    3.5185 C   0  0  0  0  0  0  0  0  0  0  0  0
   -9.0635   -1.4300    4.0064 N   0  0  0  0  0  0  0  0  0  0  0  0
   -8.2369   -0.3285    5.8948 N   0  0  0  0  0  0  0  0  0  0  0  0
   -4.8268   -0.5051    5.0885 C   0  0  0  0  0  0  0  0  0  0  0  0
   -5.7826   -0.1113    5.9413 N   0  0  0  0  0  0  0  0  0  0  0  0
   -5.4043   -1.1268    4.0370 N   0  0  0  0  0  0  0  0  0  0  0  0
   -7.6187   -2.2316    2.3355 N   0  0  0  0  0  0  0  0  0  0  0  0
   -6.7057   -2.3511    1.9871 H   0  0  0  0  0  0  0  0  0  0  0  0
   -8.3888   -2.5709    1.8246 H   0  0  0  0  0  0  0  0  0  0  0  0
  3  1  2  0  0  0
  2  1  2  0  0  0
  1 23  1  0  0  0
  1  6  1  0  0  0
 23 25  1  0  0  0
  6  4  1  0  0  0
 25 26  1  0  0  0
  4  5  2  0  0  0
  4  8  1  0  0  0
 26 27  1  0  0  0
 27 28  1  0  0  0
  8  9  1  0  0  0
 28 36  1  0  0  0
  9 10  1  0  0  0
 36 30  1  0  0  0
 36 35  1  0  0  0
 34 30  2  0  0  0
 34 29  1  0  0  0
 10 11  1  0  0  0
 30 31  1  0  0  0
 35 37  2  0  0  0
 29 33  2  0  0  0
 31 37  1  0  0  0
 31 32  2  0  0  0
 11 20  1  0  0  0
 33 32  1  0  0  0
 13 12  1  0  0  0
 13 14  1  0  0  0
 32 38  1  0  0  0
 12 20  1  0  0  0
 12 17  1  0  0  0
 20 19  1  0  0  0
 15 14  2  0  0  0
 14 16  1  0  0  0
 17 16  1  0  0  0
 17 18  1  0  0  0
 19 18  1  0  0  0
 13 21  1  0  0  0
 16 22  1  0  0  0
  6  7  1  0  0  0
 23 24  1  0  0  0
 38 39  1  0  0  0
 38 40  1  0  0  0
M  END
> <minimizedAffinity>
-9.49849

$$$$
4XU3_44R_A_301


 40 43  0  0  0  0  0  0  0  0999 V2000
   -3.3074   -3.9079    7.2236 S   0  0  0  0  0  0  0  0  0  0  0  0
   -4.4699   -3.5639    6.4530 O   0  0  0  0  0  0  0  0  0  0  0  0
   -2.2992   -4.4119    6.3338 O   0  0  0  0  0  0  0  0  0  0  0  0
   -4.0909   -6.2356    7.9522 C   0  0  0  0  0  0  0  0  0  0  0  0
   -4.4591   -6.5178    6.8247 O   0  0  0  0  0  0  0  0  0  0  0  0
   -3.6751   -5.0228    8.3149 N   0  0  0  0  0  0  0  0  0  0  0  0
   -3.5921   -4.8072    9.2719 H   0  0  0  0  0  0  0  0  0  0  0  0
   -4.0848   -7.2956    9.0264 C   0  0  0  0  0  0  0  0  0  0  0  0
   -3.6256   -6.6912   10.3464 C   0  0  0  0  0  0  0  0  0  0  0  0
   -4.0583   -7.5714   11.5104 C   0  0  0  0  0  0  0  0  0  0  0  0
   -3.0584   -8.6925   11.7639 C   0  0  0  0  0  0  0  0  0  0  0  0
   -2.3794  -10.3999   13.5036 C   0  0  0  0  0  0  0  0  0  0  0  0
   -1.0650   -9.9403   13.0969 N   0  0  0  0  0  0  0  0  0  0  0  0
   -0.2615   -9.7679   14.1429 C   0  0  0  0  0  0  0  0  0  0  0  0
    0.8767   -9.3295   14.0895 O   0  0  0  0  0  0  0  0  0  0  0  0
   -0.8726  -10.1219   15.2645 N   0  0  0  0  0  0  0  0  0  0  0  0
   -2.2728  -10.3889   15.0297 C   0  0  0  0  0  0  0  0  0  0  0  0
   -3.0723   -9.2605   15.6607 C   0  0  0  0  0  0  0  0  0  0  0  0
   -3.8559   -8.4180   14.3391 S   0  0  0  0  0  0  0  0  0  0  0  0
   -3.4847   -9.4812   12.9928 C   0  0  0  0  0  0  0  0  0  0  0  0
   -0.8005   -9.7765   12.1628 H   0  0  0  0  0  0  0  0  0  0  0  0
   -0.4309  -10.1933   16.1415 H   0  0  0  0  0  0  0  0  0  0  0  0
   -2.7291   -2.5959    7.9291 N   0  0  0  0  0  0  0  0  0  0  0  0
   -2.5073   -1.9371    7.1827 H   0  0  0  0  0  0  0  0  0  0  0  0
   -3.5208   -1.8705    8.8996 C   0  0  0  0  0  0  0  0  0  0  0  0
   -4.1983   -0.6645    8.2639 C   0  0  0  0  0  0  0  0  0  0  0  0
   -3.6066    0.5073    8.8136 O   0  0  0  0  0  0  0  0  0  0  0  0
   -2.9006    0.2553   10.0248 C   0  0  0  0  0  0  0  0  0  0  0  0
    0.6060    0.7346   12.7100 C   0  0  0  0  0  0  0  0  0  0  0  0
   -0.5377    0.6814   10.6760 C   0  0  0  0  0  0  0  0  0  0  0  0
    0.6405    0.9677   10.0093 C   0  0  0  0  0  0  0  0  0  0  0  0
    1.8053    1.1389   10.7424 C   0  0  0  0  0  0  0  0  0  0  0  0
    1.7593    1.0185   12.0870 N   0  0  0  0  0  0  0  0  0  0  0  0
   -0.5325    0.5648   12.0252 N   0  0  0  0  0  0  0  0  0  0  0  0
   -0.9598    0.7683    8.5487 C   0  0  0  0  0  0  0  0  0  0  0  0
   -1.4983    0.5598    9.7580 N   0  0  0  0  0  0  0  0  0  0  0  0
    0.3599    1.0198    8.6923 N   0  0  0  0  0  0  0  0  0  0  0  0
    2.9734    1.4226   10.1160 N   0  0  0  0  0  0  0  0  0  0  0  0
    2.9980    1.5085    9.1355 H   0  0  0  0  0  0  0  0  0  0  0  0
    3.7972    1.5426   10.6414 H   0  0  0  0  0  0  0  0  0  0  0  0
  3  1  2  0  0  0
  2  1  2  0  0  0
  1 23  1  0  0  0
  1  6  1  0  0  0
 23 25  1  0  0  0
  6  4  1  0  0  0
 25 26  1  0  0  0
  4  5  2  0  0  0
  4  8  1  0  0  0
 26 27  1  0  0  0
 27 28  1  0  0  0
  8  9  1  0  0  0
 28 36  1  0  0  0
  9 10  1  0  0  0
 36 30  1  0  0  0
 36 35  1  0  0  0
 34 30  2  0  0  0
 34 29  1  0  0  0
 10 11  1  0  0  0
 30 31  1  0  0  0
 35 37  2  0  0  0
 29 33  2  0  0  0
 31 37  1  0  0  0
 31 32  2  0  0  0
 11 20  1  0  0  0
 33 32  1  0  0  0
 13 12  1  0  0  0
 13 14  1  0  0  0
 32 38  1  0  0  0
 12 20  1  0  0  0
 12 17  1  0  0  0
 20 19  1  0  0  0
 15 14  2  0  0  0
 14 16  1  0  0  0
 17 16  1  0  0  0
 17 18  1  0  0  0
 19 18  1  0  0  0
 13 21  1  0  0  0
 16 22  1  0  0  0
  6  7  1  0  0  0
 23 24  1  0  0  0
 38 39  1  0  0  0
 38 40  1  0  0  0
M  END
> <minimizedAffinity>
-9.40360

$$$$
4XU3_44R_A_301


 40 43  0  0  0  0  0  0  0  0999 V2000
   -3.9862   -4.7314    6.5679 S   0  0  0  0  0  0  0  0  0  0  0  0
   -2.7657   -4.9803    5.8524 O   0  0  0  0  0  0  0  0  0  0  0  0
   -4.9468   -4.1742    5.6575 O   0  0  0  0  0  0  0  0  0  0  0  0
   -3.4793   -2.4187    7.5463 C   0  0  0  0  0  0  0  0  0  0  0  0
   -3.1915   -1.9652    6.4517 O   0  0  0  0  0  0  0  0  0  0  0  0
   -3.7238   -3.7086    7.7738 N   0  0  0  0  0  0  0  0  0  0  0  0
   -3.7436   -4.0398    8.7006 H   0  0  0  0  0  0  0  0  0  0  0  0
   -3.5810   -1.4967    8.7367 C   0  0  0  0  0  0  0  0  0  0  0  0
   -5.0447   -1.2537    9.0787 C   0  0  0  0  0  0  0  0  0  0  0  0
   -5.5988   -0.1053    8.2474 C   0  0  0  0  0  0  0  0  0  0  0  0
   -6.5754   -0.6029    7.1894 C   0  0  0  0  0  0  0  0  0  0  0  0
   -6.0859    0.2467    4.8567 C   0  0  0  0  0  0  0  0  0  0  0  0
   -5.7990   -1.1618    4.6610 N   0  0  0  0  0  0  0  0  0  0  0  0
   -6.2917   -1.6060    3.5080 C   0  0  0  0  0  0  0  0  0  0  0  0
   -6.2471   -2.7643    3.1249 O   0  0  0  0  0  0  0  0  0  0  0  0
   -6.8593   -0.6178    2.8311 N   0  0  0  0  0  0  0  0  0  0  0  0
   -6.9461    0.5787    3.6360 C   0  0  0  0  0  0  0  0  0  0  0  0
   -8.4078    0.7913    3.9948 C   0  0  0  0  0  0  0  0  0  0  0  0
   -8.5172    0.6022    5.7333 S   0  0  0  0  0  0  0  0  0  0  0  0
   -6.8201    0.4990    6.1697 C   0  0  0  0  0  0  0  0  0  0  0  0
   -5.3015   -1.7195    5.3018 H   0  0  0  0  0  0  0  0  0  0  0  0
   -7.1793   -0.6897    1.9029 H   0  0  0  0  0  0  0  0  0  0  0  0
   -4.5728   -6.1129    7.1166 N   0  0  0  0  0  0  0  0  0  0  0  0
   -4.6106   -6.7501    6.3211 H   0  0  0  0  0  0  0  0  0  0  0  0
   -3.9054   -6.8248    8.1857 C   0  0  0  0  0  0  0  0  0  0  0  0
   -4.7348   -6.8013    9.4620 C   0  0  0  0  0  0  0  0  0  0  0  0
   -3.8366   -6.8303   10.5655 O   0  0  0  0  0  0  0  0  0  0  0  0
   -3.3827   -8.1443   10.8760 C   0  0  0  0  0  0  0  0  0  0  0  0
   -1.2029  -10.6364   13.8381 C   0  0  0  0  0  0  0  0  0  0  0  0
   -2.8000   -9.1047   13.0957 C   0  0  0  0  0  0  0  0  0  0  0  0
   -3.2581   -8.9578   14.3931 C   0  0  0  0  0  0  0  0  0  0  0  0
   -2.6540   -9.6854   15.4075 C   0  0  0  0  0  0  0  0  0  0  0  0
   -1.6329  -10.5155   15.1027 N   0  0  0  0  0  0  0  0  0  0  0  0
   -1.7693   -9.9452   12.8404 N   0  0  0  0  0  0  0  0  0  0  0  0
   -4.4316   -7.6733   13.0865 C   0  0  0  0  0  0  0  0  0  0  0  0
   -3.5323   -8.3041   12.3190 N   0  0  0  0  0  0  0  0  0  0  0  0
   -4.2705   -8.0687   14.3684 N   0  0  0  0  0  0  0  0  0  0  0  0
   -3.0837   -9.5633   16.6873 N   0  0  0  0  0  0  0  0  0  0  0  0
   -3.8286   -8.9559   16.9007 H   0  0  0  0  0  0  0  0  0  0  0  0
   -2.6509  -10.0820   17.4035 H   0  0  0  0  0  0  0  0  0  0  0  0
  3  1  2  0  0  0
  2  1  2  0  0  0
  1 23  1  0  0  0
  1  6  1  0  0  0
 23 25  1  0  0  0
  6  4  1  0  0  0
 25 26  1  0  0  0
  4  5  2  0  0  0
  4  8  1  0  0  0
 26 27  1  0  0  0
 27 28  1  0  0  0
  8  9  1  0  0  0
 28 36  1  0  0  0
  9 10  1  0  0  0
 36 30  1  0  0  0
 36 35  1  0  0  0
 34 30  2  0  0  0
 34 29  1  0  0  0
 10 11  1  0  0  0
 30 31  1  0  0  0
 35 37  2  0  0  0
 29 33  2  0  0  0
 31 37  1  0  0  0
 31 32  2  0  0  0
 11 20  1  0  0  0
 33 32  1  0  0  0
 13 12  1  0  0  0
 13 14  1  0  0  0
 32 38  1  0  0  0
 12 20  1  0  0  0
 12 17  1  0  0  0
 20 19  1  0  0  0
 15 14  2  0  0  0
 14 16  1  0  0  0
 17 16  1  0  0  0
 17 18  1  0  0  0
 19 18  1  0  0  0
 13 21  1  0  0  0
 16 22  1  0  0  0
  6  7  1  0  0  0
 23 24  1  0  0  0
 38 39  1  0  0  0
 38 40  1  0  0  0
M  END
> <minimizedAffinity>
-8.96867

$$$$
4XU3_44R_A_301


 40 43  0  0  0  0  0  0  0  0999 V2000
   -3.4598   -4.2756    7.5255 S   0  0  0  0  0  0  0  0  0  0  0  0
   -2.2473   -4.4301    6.7708 O   0  0  0  0  0  0  0  0  0  0  0  0
   -4.5675   -4.6696    6.7009 O   0  0  0  0  0  0  0  0  0  0  0  0
   -3.9098   -1.7900    7.0984 C   0  0  0  0  0  0  0  0  0  0  0  0
   -3.7998   -1.9276    5.8920 O   0  0  0  0  0  0  0  0  0  0  0  0
   -3.6385   -2.7496    7.9821 N   0  0  0  0  0  0  0  0  0  0  0  0
   -3.5460   -2.5167    8.9342 H   0  0  0  0  0  0  0  0  0  0  0  0
   -4.3845   -0.4733    7.6628 C   0  0  0  0  0  0  0  0  0  0  0  0
   -5.6528   -0.6874    8.4777 C   0  0  0  0  0  0  0  0  0  0  0  0
   -6.8020    0.1193    7.8898 C   0  0  0  0  0  0  0  0  0  0  0  0
   -6.3903    0.8193    6.6010 C   0  0  0  0  0  0  0  0  0  0  0  0
   -7.4382    0.0327    4.4363 C   0  0  0  0  0  0  0  0  0  0  0  0
   -6.5186   -1.0652    4.6671 N   0  0  0  0  0  0  0  0  0  0  0  0
   -7.0863   -2.2410    4.4125 C   0  0  0  0  0  0  0  0  0  0  0  0
   -6.5573   -3.3279    4.5831 O   0  0  0  0  0  0  0  0  0  0  0  0
   -8.3215   -2.0751    3.9613 N   0  0  0  0  0  0  0  0  0  0  0  0
   -8.7348   -0.6957    4.0774 C   0  0  0  0  0  0  0  0  0  0  0  0
   -9.7734   -0.6143    5.1844 C   0  0  0  0  0  0  0  0  0  0  0  0
   -9.0554    0.3507    6.4585 S   0  0  0  0  0  0  0  0  0  0  0  0
   -7.5909    0.9140    5.6718 C   0  0  0  0  0  0  0  0  0  0  0  0
   -5.5898   -0.9539    4.9739 H   0  0  0  0  0  0  0  0  0  0  0  0
   -8.8830   -2.7964    3.5955 H   0  0  0  0  0  0  0  0  0  0  0  0
   -3.4234   -5.2447    8.7956 N   0  0  0  0  0  0  0  0  0  0  0  0
   -3.2878   -4.6495    9.6128 H   0  0  0  0  0  0  0  0  0  0  0  0
   -4.5443   -6.1100    9.0955 C   0  0  0  0  0  0  0  0  0  0  0  0
   -4.0931   -7.5542    9.2633 C   0  0  0  0  0  0  0  0  0  0  0  0
   -3.1997   -7.6055   10.3699 O   0  0  0  0  0  0  0  0  0  0  0  0
   -3.8702   -7.5568   11.6258 C   0  0  0  0  0  0  0  0  0  0  0  0
   -3.6731   -8.2540   16.0088 C   0  0  0  0  0  0  0  0  0  0  0  0
   -3.3487   -8.7427   13.7496 C   0  0  0  0  0  0  0  0  0  0  0  0
   -2.7699   -9.9506   14.0969 C   0  0  0  0  0  0  0  0  0  0  0  0
   -2.6533  -10.2810   15.4387 C   0  0  0  0  0  0  0  0  0  0  0  0
   -3.1104   -9.4165   16.3706 N   0  0  0  0  0  0  0  0  0  0  0  0
   -3.7974   -7.9113   14.7200 N   0  0  0  0  0  0  0  0  0  0  0  0
   -2.7826   -9.7781   11.9279 C   0  0  0  0  0  0  0  0  0  0  0  0
   -3.3478   -8.6661   12.4174 N   0  0  0  0  0  0  0  0  0  0  0  0
   -2.4233  -10.5781   12.9558 N   0  0  0  0  0  0  0  0  0  0  0  0
   -2.0883  -11.4564   15.8081 N   0  0  0  0  0  0  0  0  0  0  0  0
   -1.7578  -12.0807   15.1224 H   0  0  0  0  0  0  0  0  0  0  0  0
   -2.0085  -11.6858   16.7622 H   0  0  0  0  0  0  0  0  0  0  0  0
  3  1  2  0  0  0
  2  1  2  0  0  0
  1 23  1  0  0  0
  1  6  1  0  0  0
 23 25  1  0  0  0
  6  4  1  0  0  0
 25 26  1  0  0  0
  4  5  2  0  0  0
  4  8  1  0  0  0
 26 27  1  0  0  0
 27 28  1  0  0  0
  8  9  1  0  0  0
 28 36  1  0  0  0
  9 10  1  0  0  0
 36 30  1  0  0  0
 36 35  1  0  0  0
 34 30  2  0  0  0
 34 29  1  0  0  0
 10 11  1  0  0  0
 30 31  1  0  0  0
 35 37  2  0  0  0
 29 33  2  0  0  0
 31 37  1  0  0  0
 31 32  2  0  0  0
 11 20  1  0  0  0
 33 32  1  0  0  0
 13 12  1  0  0  0
 13 14  1  0  0  0
 32 38  1  0  0  0
 12 20  1  0  0  0
 12 17  1  0  0  0
 20 19  1  0  0  0
 15 14  2  0  0  0
 14 16  1  0  0  0
 17 16  1  0  0  0
 17 18  1  0  0  0
 19 18  1  0  0  0
 13 21  1  0  0  0
 16 22  1  0  0  0
  6  7  1  0  0  0
 23 24  1  0  0  0
 38 39  1  0  0  0
 38 40  1  0  0  0
M  END
> <minimizedAffinity>
-8.70828

$$$$
4XU3_44R_A_301


 40 43  0  0  0  0  0  0  0  0999 V2000
   -3.9390   -4.7385    6.5037 S   0  0  0  0  0  0  0  0  0  0  0  0
   -4.7485   -4.8606    5.3232 O   0  0  0  0  0  0  0  0  0  0  0  0
   -2.5691   -4.5726    6.1061 O   0  0  0  0  0  0  0  0  0  0  0  0
   -3.7866   -6.0265    8.7130 C   0  0  0  0  0  0  0  0  0  0  0  0
   -3.1630   -5.1271    9.2503 O   0  0  0  0  0  0  0  0  0  0  0  0
   -4.0851   -6.0493    7.4146 N   0  0  0  0  0  0  0  0  0  0  0  0
   -4.4016   -6.8876    7.0068 H   0  0  0  0  0  0  0  0  0  0  0  0
   -4.2719   -7.1966    9.5333 C   0  0  0  0  0  0  0  0  0  0  0  0
   -3.7775   -7.0630   10.9672 C   0  0  0  0  0  0  0  0  0  0  0  0
   -4.7396   -7.7515   11.9250 C   0  0  0  0  0  0  0  0  0  0  0  0
   -4.1509   -7.8587   13.3259 C   0  0  0  0  0  0  0  0  0  0  0  0
   -2.0375   -8.4243   14.5975 C   0  0  0  0  0  0  0  0  0  0  0  0
   -3.0213   -8.7832   15.6013 N   0  0  0  0  0  0  0  0  0  0  0  0
   -2.7104   -9.9275   16.2042 C   0  0  0  0  0  0  0  0  0  0  0  0
   -3.3976  -10.4890   17.0426 O   0  0  0  0  0  0  0  0  0  0  0  0
   -1.5523  -10.3914   15.7566 N   0  0  0  0  0  0  0  0  0  0  0  0
   -1.0917   -9.6264   14.6209 C   0  0  0  0  0  0  0  0  0  0  0  0
   -1.2314  -10.5008   13.3854 C   0  0  0  0  0  0  0  0  0  0  0  0
   -2.4372   -9.7297   12.3745 S   0  0  0  0  0  0  0  0  0  0  0  0
   -2.6751   -8.2145   13.2278 C   0  0  0  0  0  0  0  0  0  0  0  0
   -3.8199   -8.2466   15.8104 H   0  0  0  0  0  0  0  0  0  0  0  0
   -1.0699  -11.1560   16.1463 H   0  0  0  0  0  0  0  0  0  0  0  0
   -4.3764   -3.4341    7.3165 N   0  0  0  0  0  0  0  0  0  0  0  0
   -4.1395   -3.6063    8.2936 H   0  0  0  0  0  0  0  0  0  0  0  0
   -3.8285   -2.1373    6.9802 C   0  0  0  0  0  0  0  0  0  0  0  0
   -4.8974   -1.0555    7.0486 C   0  0  0  0  0  0  0  0  0  0  0  0
   -4.6262   -0.2468    8.1878 O   0  0  0  0  0  0  0  0  0  0  0  0
   -4.8029   -0.9445    9.4171 C   0  0  0  0  0  0  0  0  0  0  0  0
   -0.5664    0.3100    8.9543 C   0  0  0  0  0  0  0  0  0  0  0  0
   -2.5798   -0.0461   10.0801 C   0  0  0  0  0  0  0  0  0  0  0  0
   -2.0178    0.4591   11.2392 C   0  0  0  0  0  0  0  0  0  0  0  0
   -0.6981    0.8849   11.2183 C   0  0  0  0  0  0  0  0  0  0  0  0
    0.0025    0.7980   10.0666 N   0  0  0  0  0  0  0  0  0  0  0  0
   -1.8389   -0.1080    8.9482 N   0  0  0  0  0  0  0  0  0  0  0  0
   -4.0801   -0.1013   11.6476 C   0  0  0  0  0  0  0  0  0  0  0  0
   -3.8425   -0.3761   10.3577 N   0  0  0  0  0  0  0  0  0  0  0  0
   -2.9610    0.4155   12.2007 N   0  0  0  0  0  0  0  0  0  0  0  0
   -0.1208    1.3818   12.3395 N   0  0  0  0  0  0  0  0  0  0  0  0
   -0.6386    1.4416   13.1747 H   0  0  0  0  0  0  0  0  0  0  0  0
    0.8163    1.6830   12.3187 H   0  0  0  0  0  0  0  0  0  0  0  0
  3  1  2  0  0  0
  2  1  2  0  0  0
  1 23  1  0  0  0
  1  6  1  0  0  0
 23 25  1  0  0  0
  6  4  1  0  0  0
 25 26  1  0  0  0
  4  5  2  0  0  0
  4  8  1  0  0  0
 26 27  1  0  0  0
 27 28  1  0  0  0
  8  9  1  0  0  0
 28 36  1  0  0  0
  9 10  1  0  0  0
 36 30  1  0  0  0
 36 35  1  0  0  0
 34 30  2  0  0  0
 34 29  1  0  0  0
 10 11  1  0  0  0
 30 31  1  0  0  0
 35 37  2  0  0  0
 29 33  2  0  0  0
 31 37  1  0  0  0
 31 32  2  0  0  0
 11 20  1  0  0  0
 33 32  1  0  0  0
 13 12  1  0  0  0
 13 14  1  0  0  0
 32 38  1  0  0  0
 12 20  1  0  0  0
 12 17  1  0  0  0
 20 19  1  0  0  0
 15 14  2  0  0  0
 14 16  1  0  0  0
 17 16  1  0  0  0
 17 18  1  0  0  0
 19 18  1  0  0  0
 13 21  1  0  0  0
 16 22  1  0  0  0
  6  7  1  0  0  0
 23 24  1  0  0  0
 38 39  1  0  0  0
 38 40  1  0  0  0
M  END
> <minimizedAffinity>
-8.53301

$$$$
4XU3_44R_A_301


 40 43  0  0  0  0  0  0  0  0999 V2000
   -3.5796   -4.5476    7.2361 S   0  0  0  0  0  0  0  0  0  0  0  0
   -2.3169   -4.3877    6.5699 O   0  0  0  0  0  0  0  0  0  0  0  0
   -4.5641   -4.9385    6.2665 O   0  0  0  0  0  0  0  0  0  0  0  0
   -4.1169   -2.0427    7.2302 C   0  0  0  0  0  0  0  0  0  0  0  0
   -3.6599   -1.8979    6.1092 O   0  0  0  0  0  0  0  0  0  0  0  0
   -4.0184   -3.1716    7.9312 N   0  0  0  0  0  0  0  0  0  0  0  0
   -4.2190   -3.1602    8.8950 H   0  0  0  0  0  0  0  0  0  0  0  0
   -4.8495   -0.9027    7.8944 C   0  0  0  0  0  0  0  0  0  0  0  0
   -4.8406   -1.0928    9.4051 C   0  0  0  0  0  0  0  0  0  0  0  0
   -4.0531    0.0247   10.0744 C   0  0  0  0  0  0  0  0  0  0  0  0
   -2.5910    0.0105    9.6467 C   0  0  0  0  0  0  0  0  0  0  0  0
   -1.5811    1.9710   10.8874 C   0  0  0  0  0  0  0  0  0  0  0  0
   -1.1895    0.8977   11.7813 N   0  0  0  0  0  0  0  0  0  0  0  0
    0.0646    1.0427   12.2004 C   0  0  0  0  0  0  0  0  0  0  0  0
    0.6644    0.2502   12.9093 O   0  0  0  0  0  0  0  0  0  0  0  0
    0.5883    2.1645   11.7269 N   0  0  0  0  0  0  0  0  0  0  0  0
   -0.2851    2.7721   10.7497 C   0  0  0  0  0  0  0  0  0  0  0  0
    0.3599    2.6047    9.3835 C   0  0  0  0  0  0  0  0  0  0  0  0
   -0.7007    1.5529    8.4675 S   0  0  0  0  0  0  0  0  0  0  0  0
   -2.0798    1.4397    9.5474 C   0  0  0  0  0  0  0  0  0  0  0  0
   -1.7787    0.1544   12.0451 H   0  0  0  0  0  0  0  0  0  0  0  0
    1.4574    2.5347   12.0044 H   0  0  0  0  0  0  0  0  0  0  0  0
   -3.4655   -5.7166    8.3196 N   0  0  0  0  0  0  0  0  0  0  0  0
   -3.6390   -5.2890    9.2292 H   0  0  0  0  0  0  0  0  0  0  0  0
   -4.3204   -6.8818    8.2402 C   0  0  0  0  0  0  0  0  0  0  0  0
   -4.0743   -7.8238    9.4105 C   0  0  0  0  0  0  0  0  0  0  0  0
   -3.5405   -7.0555   10.4830 O   0  0  0  0  0  0  0  0  0  0  0  0
   -4.2143   -7.2840   11.7170 C   0  0  0  0  0  0  0  0  0  0  0  0
   -3.6383   -8.3071   16.0016 C   0  0  0  0  0  0  0  0  0  0  0  0
   -3.4137   -8.5663   13.6928 C   0  0  0  0  0  0  0  0  0  0  0  0
   -2.6750   -9.7183   13.8968 C   0  0  0  0  0  0  0  0  0  0  0  0
   -2.4291  -10.1403   15.1949 C   0  0  0  0  0  0  0  0  0  0  0  0
   -2.9198   -9.4174   16.2251 N   0  0  0  0  0  0  0  0  0  0  0  0
   -3.8896   -7.8783   14.7578 N   0  0  0  0  0  0  0  0  0  0  0  0
   -2.8557   -9.3723   11.7563 C   0  0  0  0  0  0  0  0  0  0  0  0
   -3.5127   -8.3817   12.3750 N   0  0  0  0  0  0  0  0  0  0  0  0
   -2.3358  -10.2034   12.6862 N   0  0  0  0  0  0  0  0  0  0  0  0
   -1.7063  -11.2637   15.4246 N   0  0  0  0  0  0  0  0  0  0  0  0
   -1.3523  -11.7846   14.6679 H   0  0  0  0  0  0  0  0  0  0  0  0
   -1.5352  -11.5587   16.3481 H   0  0  0  0  0  0  0  0  0  0  0  0
  3  1  2  0  0  0
  2  1  2  0  0  0
  1 23  1  0  0  0
  1  6  1  0  0  0
 23 25  1  0  0  0
  6  4  1  0  0  0
 25 26  1  0  0  0
  4  5  2  0  0  0
  4  8  1  0  0  0
 26 27  1  0  0  0
 27 28  1  0  0  0
  8  9  1  0  0  0
 28 36  1  0  0  0
  9 10  1  0  0  0
 36 30  1  0  0  0
 36 35  1  0  0  0
 34 30  2  0  0  0
 34 29  1  0  0  0
 10 11  1  0  0  0
 30 31  1  0  0  0
 35 37  2  0  0  0
 29 33  2  0  0  0
 31 37  1  0  0  0
 31 32  2  0  0  0
 11 20  1  0  0  0
 33 32  1  0  0  0
 13 12  1  0  0  0
 13 14  1  0  0  0
 32 38  1  0  0  0
 12 20  1  0  0  0
 12 17  1  0  0  0
 20 19  1  0  0  0
 15 14  2  0  0  0
 14 16  1  0  0  0
 17 16  1  0  0  0
 17 18  1  0  0  0
 19 18  1  0  0  0
 13 21  1  0  0  0
 16 22  1  0  0  0
  6  7  1  0  0  0
 23 24  1  0  0  0
 38 39  1  0  0  0
 38 40  1  0  0  0
M  END
> <minimizedAffinity>
-8.23579

$$$$
