1NHZ_486_A_800


 33 37  0  0  0  0  0  0  0  0999 V2000
   -4.3296   18.2811    3.5903 O   0  0  0  0  0  0  0  0  0  0  0  0
   -3.7569   17.2479    3.7523 C   0  0  0  0  0  0  0  0  0  0  0  0
   -4.4895   15.8841    4.0632 C   0  0  0  0  0  0  0  0  0  0  0  0
   -2.2652   17.1160    3.5904 C   0  0  0  0  0  0  0  0  0  0  0  0
   -1.7730   15.8954    3.2455 C   0  0  0  0  0  0  0  0  0  0  0  0
   -0.2151   15.7674    3.1398 C   0  0  0  0  0  0  0  0  0  0  0  0
   -2.7273   14.7572    3.1335 C   0  0  0  0  0  0  0  0  0  0  0  0
   -4.2558   15.1573    2.7907 C   0  0  0  0  0  0  0  0  0  0  0  0
   -2.2259   13.4755    3.4049 C   0  0  0  0  0  0  0  0  0  0  0  0
   -3.0735   12.0562    3.3808 C   0  0  0  0  0  0  0  0  0  0  0  0
   -2.5100   11.0544    4.4166 C   0  0  0  0  0  0  0  0  0  0  0  0
   -1.0067   11.0005    4.8483 C   0  0  0  0  0  0  0  0  0  0  0  0
   -0.2837   10.1069    3.6748 C   0  0  0  0  0  0  0  0  0  0  0  0
   -0.7539   10.2542    6.1976 C   0  0  0  0  0  0  0  0  0  0  0  0
   -0.8403    8.8092    6.0687 O   0  0  0  0  0  0  0  0  0  0  0  0
    0.7277   10.7418    6.3255 C   0  0  0  0  0  0  0  0  0  0  0  0
    0.8187   12.1643    5.6900 C   0  0  0  0  0  0  0  0  0  0  0  0
   -0.6142   12.5035    5.1021 C   0  0  0  0  0  0  0  0  0  0  0  0
   -0.6404   13.3576    3.8314 C   0  0  0  0  0  0  0  0  0  0  0  0
    0.1491   14.7000    4.1340 C   0  0  0  0  0  0  0  0  0  0  0  0
   -1.7709    8.5465    5.9920 H   0  0  0  0  0  0  0  0  0  0  0  0
   -3.0122   11.5111    1.8995 C   0  0  0  0  0  0  0  0  0  0  0  0
   -3.8762   10.3994    1.4978 C   0  0  0  0  0  0  0  0  0  0  0  0
   -3.9424    9.9235    0.2056 C   0  0  0  0  0  0  0  0  0  0  0  0
   -3.1657   10.5400   -0.8423 C   0  0  0  0  0  0  0  0  0  0  0  0
   -2.2808   11.6598   -0.4470 C   0  0  0  0  0  0  0  0  0  0  0  0
   -2.2285   12.1459    0.8813 C   0  0  0  0  0  0  0  0  0  0  0  0
   -3.1199   10.0619   -2.2107 N   0  0  0  0  0  0  0  0  0  0  0  0
   -1.9404   10.3942   -3.0132 C   0  0  0  0  0  0  0  0  0  0  0  0
   -3.9579    8.9281   -2.6819 C   0  0  0  0  0  0  0  0  0  0  0  0
   -1.4984   10.7517    7.4246 C   0  0  0  0  0  0  0  0  0  0  0  0
   -2.4248   11.1261    8.1047 C   0  0  0  0  0  0  0  0  0  0  0  0
   -3.1893   11.4781    9.3366 C   0  0  0  0  0  0  0  0  0  0  0  0
  1  2  2  0  0  0
  2  3  1  0  0  0
  2  4  1  0  0  0
  3  8  1  0  0  0
  4  5  2  0  0  0
  5  6  1  0  0  0
  5  7  1  0  0  0
  6 20  1  0  0  0
  7  8  1  0  0  0
  7  9  2  0  0  0
  9 10  1  0  0  0
  9 19  1  0  0  0
 10 22  1  0  0  0
 10 11  1  0  0  0
 22 23  2  0  0  0
 22 27  1  0  0  0
 23 24  1  0  0  0
 24 25  2  0  0  0
 25 28  1  0  0  0
 25 26  1  0  0  0
 28 29  1  0  0  0
 28 30  1  0  0  0
 26 27  2  0  0  0
 11 12  1  0  0  0
 12 13  1  0  0  0
 12 14  1  0  0  0
 12 18  1  0  0  0
 14 31  1  0  0  0
 14 15  1  0  0  0
 14 16  1  0  0  0
 31 32  3  0  0  0
 32 33  1  0  0  0
 16 17  1  0  0  0
 17 18  1  0  0  0
 18 19  1  0  0  0
 19 20  1  0  0  0
 15 21  1  0  0  0
M  END
> <minimizedAffinity>
-11.59925

$$$$
