1ORK_ATC_A_222


 44 47  0  0  0  0  0  0  0  0999 V2000
   19.7976   35.0271   34.4760 C   0  0  0  0  0  0  0  0  0  0  0  0
   19.1704   35.5725   33.5289 O   0  0  0  0  0  0  0  0  0  0  0  0
   19.2777   34.0010   35.2629 C   0  0  0  0  0  0  0  0  0  0  0  0
   20.1065   33.5620   36.2870 C   0  0  0  0  0  0  0  0  0  0  0  0
   19.9630   32.2897   36.8508 O   0  0  0  0  0  0  0  0  0  0  0  0
   21.1275   34.4779   36.9540 C   0  0  0  0  0  0  0  0  0  0  0  0
   21.7091   35.5495   35.9833 C   0  0  0  0  0  0  0  0  0  0  0  0
   21.2080   36.9318   36.3237 C   0  0  0  0  0  0  0  0  0  0  0  0
   21.8682   38.0647   35.5783 C   0  0  0  0  0  0  0  0  0  0  0  0
   21.1874   39.4436   35.7106 C   0  0  0  0  0  0  0  0  0  0  0  0
   21.9107   40.5017   34.8402 C   0  0  0  0  0  0  0  0  0  0  0  0
   21.9172   41.8181   35.2965 C   0  0  0  0  0  0  0  0  0  0  0  0
   22.4997   42.8154   34.5116 C   0  0  0  0  0  0  0  0  0  0  0  0
   23.0760   42.5156   33.2669 C   0  0  0  0  0  0  0  0  0  0  0  0
   23.0786   41.1792   32.8158 C   0  0  0  0  0  0  0  0  0  0  0  0
   23.6972   40.8713   31.5755 O   0  0  0  0  0  0  0  0  0  0  0  0
   22.4979   40.1535   33.6025 C   0  0  0  0  0  0  0  0  0  0  0  0
   22.3978   38.8250   33.1658 C   0  0  0  0  0  0  0  0  0  0  0  0
   22.7876   38.5662   32.0314 O   0  0  0  0  0  0  0  0  0  0  0  0
   21.9954   37.7620   34.0321 C   0  0  0  0  0  0  0  0  0  0  0  0
   21.7853   36.4360   33.6116 C   0  0  0  0  0  0  0  0  0  0  0  0
   22.0731   36.0054   32.2539 O   0  0  0  0  0  0  0  0  0  0  0  0
   21.3196   35.2862   34.5231 C   0  0  0  0  0  0  0  0  0  0  0  0
   22.0273   34.1196   34.0937 O   0  0  0  0  0  0  0  0  0  0  0  0
   19.3511   31.6815   36.4852 H   0  0  0  0  0  0  0  0  0  0  0  0
   24.0793   41.5543   31.0602 H   0  0  0  0  0  0  0  0  0  0  0  0
   22.3642   36.6278   31.6168 H   0  0  0  0  0  0  0  0  0  0  0  0
   21.7660   33.3630   34.6416 H   0  0  0  0  0  0  0  0  0  0  0  0
   17.9979   33.4713   35.0504 C   0  0  0  0  0  0  0  0  0  0  0  0
   17.6917   32.3348   35.4889 O   0  0  0  0  0  0  0  0  0  0  0  0
   17.0209   34.1195   34.3385 N   0  0  0  0  0  0  0  0  0  0  0  0
   17.1947   35.0142   33.9663 H   0  0  0  0  0  0  0  0  0  0  0  0
   16.1460   33.6901   34.1997 H   0  0  0  0  0  0  0  0  0  0  0  0
   23.5438   43.5501   32.4941 N   0  0  0  0  0  0  0  0  0  0  0  0
   24.8308   43.8779   32.3754 C   0  0  0  0  0  0  0  0  0  0  0  0
   25.6642   43.5382   33.2255 O   0  0  0  0  0  0  0  0  0  0  0  0
   22.8853   44.0850   31.9946 H   0  0  0  0  0  0  0  0  0  0  0  0
   25.3871   44.6463   31.1834 C   0  0  0  0  0  0  0  0  0  0  0  0
   26.7512   45.3767   31.5901 N   0  0  0  0  0  0  0  0  0  0  0  0
   28.0949   44.6186   31.1625 C   0  0  0  0  0  0  0  0  0  0  0  0
   26.7094   46.9361   31.2470 C   0  0  0  0  0  0  0  0  0  0  0  0
   22.1970   33.5438   37.5653 N   0  0  0  0  0  0  0  0  0  0  0  0
   22.8747   34.2171   38.8094 C   0  0  0  0  0  0  0  0  0  0  0  0
   23.2225   32.9781   36.5505 C   0  0  0  0  0  0  0  0  0  0  0  0
  1  2  2  0  0  0
  1  3  1  0  0  0
  1 23  1  0  0  0
  3 29  1  0  0  0
  3  4  2  0  0  0
 29 30  2  0  0  0
 29 31  1  0  0  0
  4  5  1  0  0  0
  4  6  1  0  0  0
  6 42  1  0  0  0
  6  7  1  0  0  0
 42 43  1  0  0  0
 42 44  1  0  0  0
  7  8  1  0  0  0
  7 23  1  0  0  0
  8  9  1  0  0  0
  9 10  1  0  0  0
  9 20  1  0  0  0
 10 11  1  0  0  0
 11 12  2  0  0  0
 11 17  1  0  0  0
 12 13  1  0  0  0
 13 14  2  0  0  0
 14 15  1  0  0  0
 14 34  1  0  0  0
 15 16  1  0  0  0
 15 17  2  0  0  0
 17 18  1  0  0  0
 18 19  2  0  0  0
 18 20  1  0  0  0
 20 21  2  0  0  0
 21 22  1  0  0  0
 21 23  1  0  0  0
 23 24  1  0  0  0
 34 35  1  0  0  0
 35 36  2  0  0  0
 35 38  1  0  0  0
 38 39  1  0  0  0
 39 40  1  0  0  0
 39 41  1  0  0  0
 31 32  1  0  0  0
 31 33  1  0  0  0
  5 25  1  0  0  0
 16 26  1  0  0  0
 22 27  1  0  0  0
 24 28  1  0  0  0
 34 37  1  0  0  0
M  END
> <minimizedAffinity>
-11.29368

$$$$
1ORK_ATC_A_222


 44 47  0  0  0  0  0  0  0  0999 V2000
   21.0970   35.0443   34.0859 C   0  0  0  0  0  0  0  0  0  0  0  0
   20.9784   35.4830   32.9106 O   0  0  0  0  0  0  0  0  0  0  0  0
   20.2776   34.0589   34.6336 C   0  0  0  0  0  0  0  0  0  0  0  0
   20.5382   33.7419   35.9603 C   0  0  0  0  0  0  0  0  0  0  0  0
   20.1574   32.5122   36.5079 O   0  0  0  0  0  0  0  0  0  0  0  0
   21.1260   34.7556   36.9366 C   0  0  0  0  0  0  0  0  0  0  0  0
   22.0852   35.7749   36.2511 C   0  0  0  0  0  0  0  0  0  0  0  0
   21.4742   37.1537   36.1928 C   0  0  0  0  0  0  0  0  0  0  0  0
   22.3978   38.2555   35.7367 C   0  0  0  0  0  0  0  0  0  0  0  0
   21.7245   39.6059   35.4122 C   0  0  0  0  0  0  0  0  0  0  0  0
   22.7626   40.6265   34.8820 C   0  0  0  0  0  0  0  0  0  0  0  0
   22.5475   41.9733   35.1667 C   0  0  0  0  0  0  0  0  0  0  0  0
   23.4216   42.9333   34.6522 C   0  0  0  0  0  0  0  0  0  0  0  0
   24.5123   42.5653   33.8485 C   0  0  0  0  0  0  0  0  0  0  0  0
   24.7331   41.1994   33.5744 C   0  0  0  0  0  0  0  0  0  0  0  0
   25.8594   40.8259   32.7948 O   0  0  0  0  0  0  0  0  0  0  0  0
   23.8601   40.2114   34.0938 C   0  0  0  0  0  0  0  0  0  0  0  0
   23.9832   38.8496   33.7842 C   0  0  0  0  0  0  0  0  0  0  0  0
   24.8573   38.5221   32.9878 O   0  0  0  0  0  0  0  0  0  0  0  0
   23.2312   37.8394   34.4597 C   0  0  0  0  0  0  0  0  0  0  0  0
   23.2493   36.4759   34.1134 C   0  0  0  0  0  0  0  0  0  0  0  0
   24.1381   35.9550   33.0885 O   0  0  0  0  0  0  0  0  0  0  0  0
   22.4209   35.3797   34.8074 C   0  0  0  0  0  0  0  0  0  0  0  0
   23.2547   34.2187   34.8628 O   0  0  0  0  0  0  0  0  0  0  0  0
   19.7896   31.8484   35.9583 H   0  0  0  0  0  0  0  0  0  0  0  0
   26.4327   41.4842   32.4544 H   0  0  0  0  0  0  0  0  0  0  0  0
   24.6879   36.5390   32.6042 H   0  0  0  0  0  0  0  0  0  0  0  0
   22.7737   33.4955   35.2947 H   0  0  0  0  0  0  0  0  0  0  0  0
   19.2468   33.4528   33.9030 C   0  0  0  0  0  0  0  0  0  0  0  0
   19.1149   32.2038   33.8923 O   0  0  0  0  0  0  0  0  0  0  0  0
   18.3498   34.1542   33.1382 N   0  0  0  0  0  0  0  0  0  0  0  0
   18.3967   35.1369   33.1016 H   0  0  0  0  0  0  0  0  0  0  0  0
   17.6590   33.6750   32.6260 H   0  0  0  0  0  0  0  0  0  0  0  0
   25.2790   43.5576   33.2883 N   0  0  0  0  0  0  0  0  0  0  0  0
   25.0392   44.1132   32.1002 C   0  0  0  0  0  0  0  0  0  0  0  0
   24.3529   43.5377   31.2455 O   0  0  0  0  0  0  0  0  0  0  0  0
   26.0573   43.8801   33.7978 H   0  0  0  0  0  0  0  0  0  0  0  0
   25.5411   45.4984   31.7129 C   0  0  0  0  0  0  0  0  0  0  0  0
   27.1399   45.5353   31.7600 N   0  0  0  0  0  0  0  0  0  0  0  0
   27.8780   44.2346   31.1885 C   0  0  0  0  0  0  0  0  0  0  0  0
   27.7127   46.9306   31.2344 C   0  0  0  0  0  0  0  0  0  0  0  0
   21.7949   33.9250   38.0559 N   0  0  0  0  0  0  0  0  0  0  0  0
   22.0534   34.8111   39.3241 C   0  0  0  0  0  0  0  0  0  0  0  0
   23.0457   33.1247   37.6124 C   0  0  0  0  0  0  0  0  0  0  0  0
  1  2  2  0  0  0
  1  3  1  0  0  0
  1 23  1  0  0  0
  3 29  1  0  0  0
  3  4  2  0  0  0
 29 30  2  0  0  0
 29 31  1  0  0  0
  4  5  1  0  0  0
  4  6  1  0  0  0
  6 42  1  0  0  0
  6  7  1  0  0  0
 42 43  1  0  0  0
 42 44  1  0  0  0
  7  8  1  0  0  0
  7 23  1  0  0  0
  8  9  1  0  0  0
  9 10  1  0  0  0
  9 20  1  0  0  0
 10 11  1  0  0  0
 11 12  2  0  0  0
 11 17  1  0  0  0
 12 13  1  0  0  0
 13 14  2  0  0  0
 14 15  1  0  0  0
 14 34  1  0  0  0
 15 16  1  0  0  0
 15 17  2  0  0  0
 17 18  1  0  0  0
 18 19  2  0  0  0
 18 20  1  0  0  0
 20 21  2  0  0  0
 21 22  1  0  0  0
 21 23  1  0  0  0
 23 24  1  0  0  0
 34 35  1  0  0  0
 35 36  2  0  0  0
 35 38  1  0  0  0
 38 39  1  0  0  0
 39 40  1  0  0  0
 39 41  1  0  0  0
 31 32  1  0  0  0
 31 33  1  0  0  0
  5 25  1  0  0  0
 16 26  1  0  0  0
 22 27  1  0  0  0
 24 28  1  0  0  0
 34 37  1  0  0  0
M  END
> <minimizedAffinity>
-10.45237

$$$$
1ORK_ATC_A_222


 44 47  0  0  0  0  0  0  0  0999 V2000
   21.4519   36.6365   33.0958 C   0  0  0  0  0  0  0  0  0  0  0  0
   21.8728   36.7928   31.9184 O   0  0  0  0  0  0  0  0  0  0  0  0
   20.3818   35.8103   33.4348 C   0  0  0  0  0  0  0  0  0  0  0  0
   20.0401   35.8062   34.7808 C   0  0  0  0  0  0  0  0  0  0  0  0
   19.3419   34.7389   35.3559 O   0  0  0  0  0  0  0  0  0  0  0  0
   20.2777   37.0133   35.6823 C   0  0  0  0  0  0  0  0  0  0  0  0
   21.5345   37.8395   35.2739 C   0  0  0  0  0  0  0  0  0  0  0  0
   21.1490   39.1722   34.6797 C   0  0  0  0  0  0  0  0  0  0  0  0
   22.2880   40.1320   34.4417 C   0  0  0  0  0  0  0  0  0  0  0  0
   21.9524   41.3760   33.5921 C   0  0  0  0  0  0  0  0  0  0  0  0
   23.2170   42.2388   33.3538 C   0  0  0  0  0  0  0  0  0  0  0  0
   23.0461   43.6165   33.2365 C   0  0  0  0  0  0  0  0  0  0  0  0
   24.1493   44.4252   32.9552 C   0  0  0  0  0  0  0  0  0  0  0  0
   25.4289   43.8733   32.7839 C   0  0  0  0  0  0  0  0  0  0  0  0
   25.5987   42.4794   32.9170 C   0  0  0  0  0  0  0  0  0  0  0  0
   26.9000   41.9274   32.7833 O   0  0  0  0  0  0  0  0  0  0  0  0
   24.4914   41.6447   33.2088 C   0  0  0  0  0  0  0  0  0  0  0  0
   24.5877   40.2472   33.2684 C   0  0  0  0  0  0  0  0  0  0  0  0
   25.6723   39.7381   33.0035 O   0  0  0  0  0  0  0  0  0  0  0  0
   23.5237   39.4260   33.7538 C   0  0  0  0  0  0  0  0  0  0  0  0
   23.5398   38.0193   33.7368 C   0  0  0  0  0  0  0  0  0  0  0  0
   24.7112   37.2691   33.3165 O   0  0  0  0  0  0  0  0  0  0  0  0
   22.3899   37.1192   34.2239 C   0  0  0  0  0  0  0  0  0  0  0  0
   23.0012   35.9961   34.8651 O   0  0  0  0  0  0  0  0  0  0  0  0
   19.1650   33.9690   34.8520 H   0  0  0  0  0  0  0  0  0  0  0  0
   27.6278   42.4850   32.5902 H   0  0  0  0  0  0  0  0  0  0  0  0
   25.4692   37.7214   33.0018 H   0  0  0  0  0  0  0  0  0  0  0  0
   22.3126   35.3957   35.1913 H   0  0  0  0  0  0  0  0  0  0  0  0
   19.6847   35.0598   32.4786 C   0  0  0  0  0  0  0  0  0  0  0  0
   19.0694   34.0147   32.8054 O   0  0  0  0  0  0  0  0  0  0  0  0
   19.6502   35.3805   31.1454 N   0  0  0  0  0  0  0  0  0  0  0  0
   20.1121   36.1872   30.8210 H   0  0  0  0  0  0  0  0  0  0  0  0
   19.1636   34.8040   30.5128 H   0  0  0  0  0  0  0  0  0  0  0  0
   26.4570   44.7037   32.4101 N   0  0  0  0  0  0  0  0  0  0  0  0
   26.3316   45.7169   31.5525 C   0  0  0  0  0  0  0  0  0  0  0  0
   25.3971   45.7642   30.7419 O   0  0  0  0  0  0  0  0  0  0  0  0
   27.3455   44.5399   32.8013 H   0  0  0  0  0  0  0  0  0  0  0  0
   27.2834   46.9061   31.5248 C   0  0  0  0  0  0  0  0  0  0  0  0
   28.7663   46.4137   31.1811 N   0  0  0  0  0  0  0  0  0  0  0  0
   29.4446   47.1028   29.9051 C   0  0  0  0  0  0  0  0  0  0  0  0
   29.6825   46.3468   32.4877 C   0  0  0  0  0  0  0  0  0  0  0  0
   20.3373   36.4584   37.1240 N   0  0  0  0  0  0  0  0  0  0  0  0
   19.9692   37.5746   38.1628 C   0  0  0  0  0  0  0  0  0  0  0  0
   21.6473   35.7105   37.4790 C   0  0  0  0  0  0  0  0  0  0  0  0
  1  2  2  0  0  0
  1  3  1  0  0  0
  1 23  1  0  0  0
  3 29  1  0  0  0
  3  4  2  0  0  0
 29 30  2  0  0  0
 29 31  1  0  0  0
  4  5  1  0  0  0
  4  6  1  0  0  0
  6 42  1  0  0  0
  6  7  1  0  0  0
 42 43  1  0  0  0
 42 44  1  0  0  0
  7  8  1  0  0  0
  7 23  1  0  0  0
  8  9  1  0  0  0
  9 10  1  0  0  0
  9 20  1  0  0  0
 10 11  1  0  0  0
 11 12  2  0  0  0
 11 17  1  0  0  0
 12 13  1  0  0  0
 13 14  2  0  0  0
 14 15  1  0  0  0
 14 34  1  0  0  0
 15 16  1  0  0  0
 15 17  2  0  0  0
 17 18  1  0  0  0
 18 19  2  0  0  0
 18 20  1  0  0  0
 20 21  2  0  0  0
 21 22  1  0  0  0
 21 23  1  0  0  0
 23 24  1  0  0  0
 34 35  1  0  0  0
 35 36  2  0  0  0
 35 38  1  0  0  0
 38 39  1  0  0  0
 39 40  1  0  0  0
 39 41  1  0  0  0
 31 32  1  0  0  0
 31 33  1  0  0  0
  5 25  1  0  0  0
 16 26  1  0  0  0
 22 27  1  0  0  0
 24 28  1  0  0  0
 34 37  1  0  0  0
M  END
> <minimizedAffinity>
-9.85770

$$$$
1ORK_ATC_A_222


 44 47  0  0  0  0  0  0  0  0999 V2000
   21.7283   37.6464   32.3380 C   0  0  0  0  0  0  0  0  0  0  0  0
   22.1802   37.8993   31.1892 O   0  0  0  0  0  0  0  0  0  0  0  0
   20.6517   36.7948   32.5791 C   0  0  0  0  0  0  0  0  0  0  0  0
   20.2741   36.6799   33.9105 C   0  0  0  0  0  0  0  0  0  0  0  0
   19.5635   35.5687   34.3769 O   0  0  0  0  0  0  0  0  0  0  0  0
   20.4844   37.8088   34.9142 C   0  0  0  0  0  0  0  0  0  0  0  0
   21.7496   38.6663   34.6091 C   0  0  0  0  0  0  0  0  0  0  0  0
   21.3766   40.0432   34.1163 C   0  0  0  0  0  0  0  0  0  0  0  0
   22.5192   41.0197   33.9887 C   0  0  0  0  0  0  0  0  0  0  0  0
   22.2032   42.3293   33.2356 C   0  0  0  0  0  0  0  0  0  0  0  0
   23.4716   43.2092   33.1031 C   0  0  0  0  0  0  0  0  0  0  0  0
   23.3003   44.5919   33.0949 C   0  0  0  0  0  0  0  0  0  0  0  0
   24.4086   45.4213   32.9108 C   0  0  0  0  0  0  0  0  0  0  0  0
   25.6937   44.8858   32.7292 C   0  0  0  0  0  0  0  0  0  0  0  0
   25.8635   43.4857   32.7517 C   0  0  0  0  0  0  0  0  0  0  0  0
   27.1693   42.9471   32.6081 O   0  0  0  0  0  0  0  0  0  0  0  0
   24.7509   42.6294   32.9441 C   0  0  0  0  0  0  0  0  0  0  0  0
   24.8491   41.2319   32.8911 C   0  0  0  0  0  0  0  0  0  0  0  0
   25.9418   40.7466   32.6145 O   0  0  0  0  0  0  0  0  0  0  0  0
   23.7747   40.3731   33.2786 C   0  0  0  0  0  0  0  0  0  0  0  0
   23.7948   38.9726   33.1465 C   0  0  0  0  0  0  0  0  0  0  0  0
   24.9790   38.2599   32.6975 O   0  0  0  0  0  0  0  0  0  0  0  0
   22.6346   38.0351   33.5268 C   0  0  0  0  0  0  0  0  0  0  0  0
   23.2314   36.8632   34.0897 O   0  0  0  0  0  0  0  0  0  0  0  0
   19.4022   34.8428   33.8068 H   0  0  0  0  0  0  0  0  0  0  0  0
   27.9006   43.5190   32.4811 H   0  0  0  0  0  0  0  0  0  0  0  0
   25.7439   38.7368   32.4416 H   0  0  0  0  0  0  0  0  0  0  0  0
   22.5358   36.2379   34.3468 H   0  0  0  0  0  0  0  0  0  0  0  0
   19.9823   36.1253   31.5460 C   0  0  0  0  0  0  0  0  0  0  0  0
   19.5012   34.9795   31.7284 O   0  0  0  0  0  0  0  0  0  0  0  0
   19.8353   36.6402   30.2832 N   0  0  0  0  0  0  0  0  0  0  0  0
   20.1895   37.5342   30.0718 H   0  0  0  0  0  0  0  0  0  0  0  0
   19.3757   36.1159   29.5881 H   0  0  0  0  0  0  0  0  0  0  0  0
   26.7294   45.7445   32.4527 N   0  0  0  0  0  0  0  0  0  0  0  0
   26.6824   46.7075   31.5317 C   0  0  0  0  0  0  0  0  0  0  0  0
   25.8671   46.6709   30.6009 O   0  0  0  0  0  0  0  0  0  0  0  0
   27.5615   45.6422   32.9688 H   0  0  0  0  0  0  0  0  0  0  0  0
   27.5806   47.9375   31.5675 C   0  0  0  0  0  0  0  0  0  0  0  0
   29.0939   47.5206   31.2582 N   0  0  0  0  0  0  0  0  0  0  0  0
   29.8566   46.7594   32.4423 C   0  0  0  0  0  0  0  0  0  0  0  0
   29.2376   46.8528   29.8144 C   0  0  0  0  0  0  0  0  0  0  0  0
   20.5068   37.1373   36.3065 N   0  0  0  0  0  0  0  0  0  0  0  0
   20.2007   38.1858   37.4323 C   0  0  0  0  0  0  0  0  0  0  0  0
   21.7700   36.2882   36.5984 C   0  0  0  0  0  0  0  0  0  0  0  0
  1  2  2  0  0  0
  1  3  1  0  0  0
  1 23  1  0  0  0
  3 29  1  0  0  0
  3  4  2  0  0  0
 29 30  2  0  0  0
 29 31  1  0  0  0
  4  5  1  0  0  0
  4  6  1  0  0  0
  6 42  1  0  0  0
  6  7  1  0  0  0
 42 43  1  0  0  0
 42 44  1  0  0  0
  7  8  1  0  0  0
  7 23  1  0  0  0
  8  9  1  0  0  0
  9 10  1  0  0  0
  9 20  1  0  0  0
 10 11  1  0  0  0
 11 12  2  0  0  0
 11 17  1  0  0  0
 12 13  1  0  0  0
 13 14  2  0  0  0
 14 15  1  0  0  0
 14 34  1  0  0  0
 15 16  1  0  0  0
 15 17  2  0  0  0
 17 18  1  0  0  0
 18 19  2  0  0  0
 18 20  1  0  0  0
 20 21  2  0  0  0
 21 22  1  0  0  0
 21 23  1  0  0  0
 23 24  1  0  0  0
 34 35  1  0  0  0
 35 36  2  0  0  0
 35 38  1  0  0  0
 38 39  1  0  0  0
 39 40  1  0  0  0
 39 41  1  0  0  0
 31 32  1  0  0  0
 31 33  1  0  0  0
  5 25  1  0  0  0
 16 26  1  0  0  0
 22 27  1  0  0  0
 24 28  1  0  0  0
 34 37  1  0  0  0
M  END
> <minimizedAffinity>
-9.77698

$$$$
1ORK_ATC_A_222


 44 47  0  0  0  0  0  0  0  0999 V2000
   24.1880   39.3845   33.0986 C   0  0  0  0  0  0  0  0  0  0  0  0
   24.6828   38.3403   32.5959 O   0  0  0  0  0  0  0  0  0  0  0  0
   24.9464   40.4579   33.5626 C   0  0  0  0  0  0  0  0  0  0  0  0
   24.2183   41.4986   34.1239 C   0  0  0  0  0  0  0  0  0  0  0  0
   24.7380   42.7948   34.2065 O   0  0  0  0  0  0  0  0  0  0  0  0
   22.8734   41.2724   34.8068 C   0  0  0  0  0  0  0  0  0  0  0  0
   22.0619   40.0994   34.1788 C   0  0  0  0  0  0  0  0  0  0  0  0
   22.0032   38.9107   35.1068 C   0  0  0  0  0  0  0  0  0  0  0  0
   21.0723   37.8015   34.6846 C   0  0  0  0  0  0  0  0  0  0  0  0
   21.2046   36.4781   35.4678 C   0  0  0  0  0  0  0  0  0  0  0  0
   20.2551   35.3983   34.8908 C   0  0  0  0  0  0  0  0  0  0  0  0
   19.7352   34.4562   35.7757 C   0  0  0  0  0  0  0  0  0  0  0  0
   18.9286   33.4258   35.2879 C   0  0  0  0  0  0  0  0  0  0  0  0
   18.6354   33.3197   33.9190 C   0  0  0  0  0  0  0  0  0  0  0  0
   19.1534   34.2839   33.0293 C   0  0  0  0  0  0  0  0  0  0  0  0
   18.8231   34.1982   31.6511 O   0  0  0  0  0  0  0  0  0  0  0  0
   19.9681   35.3399   33.5080 C   0  0  0  0  0  0  0  0  0  0  0  0
   20.5772   36.2748   32.6591 C   0  0  0  0  0  0  0  0  0  0  0  0
   20.4306   36.1281   31.4497 O   0  0  0  0  0  0  0  0  0  0  0  0
   21.2305   37.4461   33.1526 C   0  0  0  0  0  0  0  0  0  0  0  0
   21.9392   38.3552   32.3460 C   0  0  0  0  0  0  0  0  0  0  0  0
   21.9726   38.2342   30.8983 O   0  0  0  0  0  0  0  0  0  0  0  0
   22.6770   39.6030   32.8642 C   0  0  0  0  0  0  0  0  0  0  0  0
   22.4776   40.6253   31.8838 O   0  0  0  0  0  0  0  0  0  0  0  0
   25.5612   42.9959   33.8064 H   0  0  0  0  0  0  0  0  0  0  0  0
   18.2840   33.4973   31.3412 H   0  0  0  0  0  0  0  0  0  0  0  0
   21.5527   37.5091   30.4790 H   0  0  0  0  0  0  0  0  0  0  0  0
   22.9268   41.4370   32.1670 H   0  0  0  0  0  0  0  0  0  0  0  0
   26.3458   40.4705   33.4912 C   0  0  0  0  0  0  0  0  0  0  0  0
   27.0168   39.4719   33.8521 O   0  0  0  0  0  0  0  0  0  0  0  0
   27.0706   41.5549   33.0668 N   0  0  0  0  0  0  0  0  0  0  0  0
   26.6071   42.3711   32.7699 H   0  0  0  0  0  0  0  0  0  0  0  0
   28.0544   41.5169   33.0589 H   0  0  0  0  0  0  0  0  0  0  0  0
   17.9209   32.2306   33.4834 N   0  0  0  0  0  0  0  0  0  0  0  0
   16.6462   32.2738   33.0948 C   0  0  0  0  0  0  0  0  0  0  0  0
   15.8957   33.1939   33.4450 O   0  0  0  0  0  0  0  0  0  0  0  0
   18.3805   31.3603   33.4564 H   0  0  0  0  0  0  0  0  0  0  0  0
   16.0240   31.2386   32.1663 C   0  0  0  0  0  0  0  0  0  0  0  0
   14.4304   31.2635   32.3068 N   0  0  0  0  0  0  0  0  0  0  0  0
   13.6155   31.2789   30.9289 C   0  0  0  0  0  0  0  0  0  0  0  0
   13.9181   30.2076   33.3903 C   0  0  0  0  0  0  0  0  0  0  0  0
   22.1414   42.6333   34.7591 N   0  0  0  0  0  0  0  0  0  0  0  0
   21.3375   42.8767   36.0838 C   0  0  0  0  0  0  0  0  0  0  0  0
   21.2924   42.8704   33.4845 C   0  0  0  0  0  0  0  0  0  0  0  0
  1  2  2  0  0  0
  1  3  1  0  0  0
  1 23  1  0  0  0
  3 29  1  0  0  0
  3  4  2  0  0  0
 29 30  2  0  0  0
 29 31  1  0  0  0
  4  5  1  0  0  0
  4  6  1  0  0  0
  6 42  1  0  0  0
  6  7  1  0  0  0
 42 43  1  0  0  0
 42 44  1  0  0  0
  7  8  1  0  0  0
  7 23  1  0  0  0
  8  9  1  0  0  0
  9 10  1  0  0  0
  9 20  1  0  0  0
 10 11  1  0  0  0
 11 12  2  0  0  0
 11 17  1  0  0  0
 12 13  1  0  0  0
 13 14  2  0  0  0
 14 15  1  0  0  0
 14 34  1  0  0  0
 15 16  1  0  0  0
 15 17  2  0  0  0
 17 18  1  0  0  0
 18 19  2  0  0  0
 18 20  1  0  0  0
 20 21  2  0  0  0
 21 22  1  0  0  0
 21 23  1  0  0  0
 23 24  1  0  0  0
 34 35  1  0  0  0
 35 36  2  0  0  0
 35 38  1  0  0  0
 38 39  1  0  0  0
 39 40  1  0  0  0
 39 41  1  0  0  0
 31 32  1  0  0  0
 31 33  1  0  0  0
  5 25  1  0  0  0
 16 26  1  0  0  0
 22 27  1  0  0  0
 24 28  1  0  0  0
 34 37  1  0  0  0
M  END
> <minimizedAffinity>
-9.52355

$$$$
1ORK_ATC_A_222


 44 47  0  0  0  0  0  0  0  0999 V2000
   21.7960   36.1866   36.5217 C   0  0  0  0  0  0  0  0  0  0  0  0
   22.6681   36.7966   37.1964 O   0  0  0  0  0  0  0  0  0  0  0  0
   21.5298   34.8242   36.6468 C   0  0  0  0  0  0  0  0  0  0  0  0
   20.5627   34.3280   35.7826 C   0  0  0  0  0  0  0  0  0  0  0  0
   19.8591   33.1530   36.0679 O   0  0  0  0  0  0  0  0  0  0  0  0
   20.3032   34.9472   34.4131 C   0  0  0  0  0  0  0  0  0  0  0  0
   20.5577   36.4845   34.3825 C   0  0  0  0  0  0  0  0  0  0  0  0
   21.7933   36.8230   33.5847 C   0  0  0  0  0  0  0  0  0  0  0  0
   22.0143   38.2914   33.3200 C   0  0  0  0  0  0  0  0  0  0  0  0
   23.3976   38.6711   32.7504 C   0  0  0  0  0  0  0  0  0  0  0  0
   23.5284   40.2073   32.5972 C   0  0  0  0  0  0  0  0  0  0  0  0
   24.3208   40.6872   31.5566 C   0  0  0  0  0  0  0  0  0  0  0  0
   24.5201   42.0628   31.4218 C   0  0  0  0  0  0  0  0  0  0  0  0
   23.9390   42.9719   32.3201 C   0  0  0  0  0  0  0  0  0  0  0  0
   23.1268   42.4814   33.3639 C   0  0  0  0  0  0  0  0  0  0  0  0
   22.5074   43.4043   34.2473 O   0  0  0  0  0  0  0  0  0  0  0  0
   22.9084   41.0891   33.5115 C   0  0  0  0  0  0  0  0  0  0  0  0
   22.1808   40.5426   34.5781 C   0  0  0  0  0  0  0  0  0  0  0  0
   21.7660   41.3119   35.4394 O   0  0  0  0  0  0  0  0  0  0  0  0
   21.7962   39.1669   34.6178 C   0  0  0  0  0  0  0  0  0  0  0  0
   21.1555   38.5564   35.7115 C   0  0  0  0  0  0  0  0  0  0  0  0
   20.7238   39.3171   36.8720 O   0  0  0  0  0  0  0  0  0  0  0  0
   20.7643   37.0694   35.7854 C   0  0  0  0  0  0  0  0  0  0  0  0
   19.5052   37.0170   36.4622 O   0  0  0  0  0  0  0  0  0  0  0  0
   19.9762   32.7255   36.8934 H   0  0  0  0  0  0  0  0  0  0  0  0
   22.6560   44.3236   34.1441 H   0  0  0  0  0  0  0  0  0  0  0  0
   20.9114   40.2334   36.9278 H   0  0  0  0  0  0  0  0  0  0  0  0
   19.2148   36.0943   36.5339 H   0  0  0  0  0  0  0  0  0  0  0  0
   22.2113   34.0104   37.5616 C   0  0  0  0  0  0  0  0  0  0  0  0
   22.9743   33.0954   37.1638 O   0  0  0  0  0  0  0  0  0  0  0  0
   22.0750   34.1247   38.9217 N   0  0  0  0  0  0  0  0  0  0  0  0
   21.4917   34.8213   39.3011 H   0  0  0  0  0  0  0  0  0  0  0  0
   22.5603   33.5103   39.5184 H   0  0  0  0  0  0  0  0  0  0  0  0
   24.2505   44.3041   32.1992 N   0  0  0  0  0  0  0  0  0  0  0  0
   25.4193   44.8384   32.5546 C   0  0  0  0  0  0  0  0  0  0  0  0
   26.1695   44.2718   33.3600 O   0  0  0  0  0  0  0  0  0  0  0  0
   23.5655   44.9042   31.8253 H   0  0  0  0  0  0  0  0  0  0  0  0
   25.9457   46.1466   31.9780 C   0  0  0  0  0  0  0  0  0  0  0  0
   27.5273   46.0510   31.7564 N   0  0  0  0  0  0  0  0  0  0  0  0
   28.0483   44.7024   31.0686 C   0  0  0  0  0  0  0  0  0  0  0  0
   28.1188   47.4020   31.1428 C   0  0  0  0  0  0  0  0  0  0  0  0
   18.8587   34.5463   34.0352 N   0  0  0  0  0  0  0  0  0  0  0  0
   18.8172   33.0780   33.4851 C   0  0  0  0  0  0  0  0  0  0  0  0
   18.1224   35.5563   33.1190 C   0  0  0  0  0  0  0  0  0  0  0  0
  1  2  2  0  0  0
  1  3  1  0  0  0
  1 23  1  0  0  0
  3 29  1  0  0  0
  3  4  2  0  0  0
 29 30  2  0  0  0
 29 31  1  0  0  0
  4  5  1  0  0  0
  4  6  1  0  0  0
  6 42  1  0  0  0
  6  7  1  0  0  0
 42 43  1  0  0  0
 42 44  1  0  0  0
  7  8  1  0  0  0
  7 23  1  0  0  0
  8  9  1  0  0  0
  9 10  1  0  0  0
  9 20  1  0  0  0
 10 11  1  0  0  0
 11 12  2  0  0  0
 11 17  1  0  0  0
 12 13  1  0  0  0
 13 14  2  0  0  0
 14 15  1  0  0  0
 14 34  1  0  0  0
 15 16  1  0  0  0
 15 17  2  0  0  0
 17 18  1  0  0  0
 18 19  2  0  0  0
 18 20  1  0  0  0
 20 21  2  0  0  0
 21 22  1  0  0  0
 21 23  1  0  0  0
 23 24  1  0  0  0
 34 35  1  0  0  0
 35 36  2  0  0  0
 35 38  1  0  0  0
 38 39  1  0  0  0
 39 40  1  0  0  0
 39 41  1  0  0  0
 31 32  1  0  0  0
 31 33  1  0  0  0
  5 25  1  0  0  0
 16 26  1  0  0  0
 22 27  1  0  0  0
 24 28  1  0  0  0
 34 37  1  0  0  0
M  END
> <minimizedAffinity>
-9.50389

$$$$
1ORK_ATC_A_222


 44 47  0  0  0  0  0  0  0  0999 V2000
   18.8642   35.3686   33.2646 C   0  0  0  0  0  0  0  0  0  0  0  0
   18.4614   36.0888   32.3123 O   0  0  0  0  0  0  0  0  0  0  0  0
   18.0915   34.3801   33.8716 C   0  0  0  0  0  0  0  0  0  0  0  0
   18.6977   33.7244   34.9351 C   0  0  0  0  0  0  0  0  0  0  0  0
   18.2856   32.4505   35.3407 O   0  0  0  0  0  0  0  0  0  0  0  0
   19.7485   34.3982   35.8115 C   0  0  0  0  0  0  0  0  0  0  0  0
   20.6132   35.4366   35.0351 C   0  0  0  0  0  0  0  0  0  0  0  0
   20.2896   36.8490   35.4571 C   0  0  0  0  0  0  0  0  0  0  0  0
   21.2105   37.9156   34.9189 C   0  0  0  0  0  0  0  0  0  0  0  0
   20.7385   39.3721   35.1138 C   0  0  0  0  0  0  0  0  0  0  0  0
   21.7264   40.3653   34.4519 C   0  0  0  0  0  0  0  0  0  0  0  0
   21.8740   41.6188   35.0418 C   0  0  0  0  0  0  0  0  0  0  0  0
   22.7032   42.5685   34.4411 C   0  0  0  0  0  0  0  0  0  0  0  0
   23.3884   42.2836   33.2492 C   0  0  0  0  0  0  0  0  0  0  0  0
   23.2459   41.0084   32.6634 C   0  0  0  0  0  0  0  0  0  0  0  0
   23.9707   40.7083   31.4800 O   0  0  0  0  0  0  0  0  0  0  0  0
   22.4139   40.0305   33.2630 C   0  0  0  0  0  0  0  0  0  0  0  0
   22.1701   38.7790   32.6801 C   0  0  0  0  0  0  0  0  0  0  0  0
   22.6643   38.5561   31.5793 O   0  0  0  0  0  0  0  0  0  0  0  0
   21.4962   37.7281   33.3756 C   0  0  0  0  0  0  0  0  0  0  0  0
   21.1429   36.4958   32.7960 C   0  0  0  0  0  0  0  0  0  0  0  0
   21.5408   36.1401   31.4444 O   0  0  0  0  0  0  0  0  0  0  0  0
   20.3876   35.3663   33.5195 C   0  0  0  0  0  0  0  0  0  0  0  0
   20.9585   34.1390   33.0568 O   0  0  0  0  0  0  0  0  0  0  0  0
   17.6422   31.9856   34.8429 H   0  0  0  0  0  0  0  0  0  0  0  0
   24.5191   41.3596   31.0887 H   0  0  0  0  0  0  0  0  0  0  0  0
   22.0072   36.7571   30.9155 H   0  0  0  0  0  0  0  0  0  0  0  0
   20.5127   33.3926   33.4870 H   0  0  0  0  0  0  0  0  0  0  0  0
   16.7858   34.0903   33.4537 C   0  0  0  0  0  0  0  0  0  0  0  0
   16.5569   33.1257   32.6825 O   0  0  0  0  0  0  0  0  0  0  0  0
   15.6935   34.8365   33.8166 N   0  0  0  0  0  0  0  0  0  0  0  0
   15.8023   35.6074   34.4193 H   0  0  0  0  0  0  0  0  0  0  0  0
   14.8009   34.6012   33.4744 H   0  0  0  0  0  0  0  0  0  0  0  0
   24.1095   43.2877   32.6507 N   0  0  0  0  0  0  0  0  0  0  0  0
   25.3019   43.1190   32.0783 C   0  0  0  0  0  0  0  0  0  0  0  0
   26.0237   42.1545   32.3633 O   0  0  0  0  0  0  0  0  0  0  0  0
   23.7202   44.1919   32.6439 H   0  0  0  0  0  0  0  0  0  0  0  0
   25.8519   44.0557   31.0102 C   0  0  0  0  0  0  0  0  0  0  0  0
   26.3675   45.4124   31.6834 N   0  0  0  0  0  0  0  0  0  0  0  0
   27.2834   45.2335   32.9843 C   0  0  0  0  0  0  0  0  0  0  0  0
   26.9256   46.4365   30.5921 C   0  0  0  0  0  0  0  0  0  0  0  0
   20.5695   33.2510   36.4439 N   0  0  0  0  0  0  0  0  0  0  0  0
   21.8126   33.8186   37.2139 C   0  0  0  0  0  0  0  0  0  0  0  0
   20.9341   32.1002   35.4722 C   0  0  0  0  0  0  0  0  0  0  0  0
  1  2  2  0  0  0
  1  3  1  0  0  0
  1 23  1  0  0  0
  3 29  1  0  0  0
  3  4  2  0  0  0
 29 30  2  0  0  0
 29 31  1  0  0  0
  4  5  1  0  0  0
  4  6  1  0  0  0
  6 42  1  0  0  0
  6  7  1  0  0  0
 42 43  1  0  0  0
 42 44  1  0  0  0
  7  8  1  0  0  0
  7 23  1  0  0  0
  8  9  1  0  0  0
  9 10  1  0  0  0
  9 20  1  0  0  0
 10 11  1  0  0  0
 11 12  2  0  0  0
 11 17  1  0  0  0
 12 13  1  0  0  0
 13 14  2  0  0  0
 14 15  1  0  0  0
 14 34  1  0  0  0
 15 16  1  0  0  0
 15 17  2  0  0  0
 17 18  1  0  0  0
 18 19  2  0  0  0
 18 20  1  0  0  0
 20 21  2  0  0  0
 21 22  1  0  0  0
 21 23  1  0  0  0
 23 24  1  0  0  0
 34 35  1  0  0  0
 35 36  2  0  0  0
 35 38  1  0  0  0
 38 39  1  0  0  0
 39 40  1  0  0  0
 39 41  1  0  0  0
 31 32  1  0  0  0
 31 33  1  0  0  0
  5 25  1  0  0  0
 16 26  1  0  0  0
 22 27  1  0  0  0
 24 28  1  0  0  0
 34 37  1  0  0  0
M  END
> <minimizedAffinity>
-8.46843

$$$$
