6FYZ_EBE_A_2001


 27 29  0  0  0  0  0  0  0  0999 V2000
   -9.5508   -4.6508   11.1058 C   0  0  0  0  0  0  0  0  0  0  0  0
   -8.1548   -6.7084   11.7456 C   0  0  0  0  0  0  0  0  0  0  0  0
   -9.0371   -6.0396   10.8798 C   0  0  0  0  0  0  0  0  0  0  0  0
   -7.7399   -8.0080   11.4729 C   0  0  0  0  0  0  0  0  0  0  0  0
   -8.1909   -8.6604   10.3344 C   0  0  0  0  0  0  0  0  0  0  0  0
   -9.0735   -8.0154    9.4780 C   0  0  0  0  0  0  0  0  0  0  0  0
   -9.4890   -6.7169    9.7425 C   0  0  0  0  0  0  0  0  0  0  0  0
  -10.3528   -6.1297    8.8829 F   0  0  0  0  0  0  0  0  0  0  0  0
   -7.8607   -2.9167   11.6896 C   0  0  0  0  0  0  0  0  0  0  0  0
   -7.1081   -2.1905   12.6052 C   0  0  0  0  0  0  0  0  0  0  0  0
   -7.2229   -2.3912   13.9918 C   0  0  0  0  0  0  0  0  0  0  0  0
   -8.7663   -3.8797   12.1148 C   0  0  0  0  0  0  0  0  0  0  0  0
   -8.8935   -4.0951   13.4876 C   0  0  0  0  0  0  0  0  0  0  0  0
   -8.1390   -3.3658   14.4042 C   0  0  0  0  0  0  0  0  0  0  0  0
   -6.3971   -1.5964   14.9830 C   0  0  0  0  0  0  0  0  0  0  0  0
   -6.6300   -1.6546   16.3727 C   0  0  0  0  0  0  0  0  0  0  0  0
   -4.8917   -0.1355   16.8022 C   0  0  0  0  0  0  0  0  0  0  0  0
   -5.3452   -0.7527   14.5776 C   0  0  0  0  0  0  0  0  0  0  0  0
   -5.8844   -0.9383   17.2352 N   0  0  0  0  0  0  0  0  0  0  0  0
   -4.0633    0.6487   17.7867 C   0  0  0  0  0  0  0  0  0  0  0  0
   -4.6304   -0.0559   15.4782 N   0  0  0  0  0  0  0  0  0  0  0  0
  -11.0070   -4.7138   11.5101 C   0  0  0  0  0  0  0  0  0  0  0  0
  -11.4694   -5.7125   12.0458 O   0  0  0  0  0  0  0  0  0  0  0  0
  -11.7643   -3.6469   11.2506 N   0  0  0  0  0  0  0  0  0  0  0  0
  -13.1129   -3.6412   11.6059 O   0  0  0  0  0  0  0  0  0  0  0  0
  -11.3702   -2.8613   10.8071 H   0  0  0  0  0  0  0  0  0  0  0  0
  -13.3392   -4.4840   12.0295 H   0  0  0  0  0  0  0  0  0  0  0  0
  8  7  1  0  0  0
  6  7  2  0  0  0
  6  5  1  0  0  0
  7  3  1  0  0  0
  5  4  2  0  0  0
  3  1  1  0  0  0
  3  2  2  0  0  0
  1 22  1  0  0  0
  1 12  1  0  0  0
  4  2  1  0  0  0
 24 22  1  0  0  0
 24 25  1  0  0  0
 22 23  2  0  0  0
  9 12  2  0  0  0
  9 10  1  0  0  0
 12 13  1  0  0  0
 10 11  2  0  0  0
 13 14  2  0  0  0
 11 14  1  0  0  0
 11 15  1  0  0  0
 16 15  2  0  0  0
 16 19  1  0  0  0
 15 18  1  0  0  0
 19 17  2  0  0  0
 18 21  2  0  0  0
 17 21  1  0  0  0
 17 20  1  0  0  0
 24 26  1  0  0  0
 25 27  1  0  0  0
M  END
> <minimizedAffinity>
-11.00668

$$$$
6FYZ_EBE_A_2001


 27 29  0  0  0  0  0  0  0  0999 V2000
   -9.7004   -4.7667   10.7531 C   0  0  0  0  0  0  0  0  0  0  0  0
   -8.7304   -6.9493    9.8112 C   0  0  0  0  0  0  0  0  0  0  0  0
   -9.4626   -6.2453   10.7826 C   0  0  0  0  0  0  0  0  0  0  0  0
   -8.5382   -8.3227    9.9227 C   0  0  0  0  0  0  0  0  0  0  0  0
   -9.0743   -9.0176   10.9973 C   0  0  0  0  0  0  0  0  0  0  0  0
   -9.7883   -8.3315   11.9710 C   0  0  0  0  0  0  0  0  0  0  0  0
   -9.9867   -6.9611   11.8641 C   0  0  0  0  0  0  0  0  0  0  0  0
  -10.6848   -6.3337   12.8382 F   0  0  0  0  0  0  0  0  0  0  0  0
   -8.9277   -4.4313   13.0972 C   0  0  0  0  0  0  0  0  0  0  0  0
   -8.2127   -3.7439   14.0709 C   0  0  0  0  0  0  0  0  0  0  0  0
   -7.4469   -2.6042   13.7695 C   0  0  0  0  0  0  0  0  0  0  0  0
   -8.9123   -4.0137   11.7729 C   0  0  0  0  0  0  0  0  0  0  0  0
   -8.1593   -2.8831   11.4537 C   0  0  0  0  0  0  0  0  0  0  0  0
   -7.4425   -2.1956   12.4308 C   0  0  0  0  0  0  0  0  0  0  0  0
   -6.6718   -1.8596   14.8377 C   0  0  0  0  0  0  0  0  0  0  0  0
   -7.0032   -1.9474   16.2056 C   0  0  0  0  0  0  0  0  0  0  0  0
   -5.2593   -0.4906   16.7973 C   0  0  0  0  0  0  0  0  0  0  0  0
   -5.5718   -1.0361   14.5301 C   0  0  0  0  0  0  0  0  0  0  0  0
   -6.3010   -1.2756   17.1376 N   0  0  0  0  0  0  0  0  0  0  0  0
   -4.4813    0.2436   17.8586 C   0  0  0  0  0  0  0  0  0  0  0  0
   -4.9036   -0.3839   15.4974 N   0  0  0  0  0  0  0  0  0  0  0  0
  -11.1780   -4.4925   10.9246 C   0  0  0  0  0  0  0  0  0  0  0  0
  -11.6003   -3.9130   11.9166 O   0  0  0  0  0  0  0  0  0  0  0  0
  -11.9981   -4.9150    9.9611 N   0  0  0  0  0  0  0  0  0  0  0  0
  -13.3703   -4.6857   10.0579 O   0  0  0  0  0  0  0  0  0  0  0  0
  -11.6336   -5.3900    9.1796 H   0  0  0  0  0  0  0  0  0  0  0  0
  -13.5613   -4.2100   10.8814 H   0  0  0  0  0  0  0  0  0  0  0  0
  8  7  1  0  0  0
  6  7  2  0  0  0
  6  5  1  0  0  0
  7  3  1  0  0  0
  5  4  2  0  0  0
  3  1  1  0  0  0
  3  2  2  0  0  0
  1 22  1  0  0  0
  1 12  1  0  0  0
  4  2  1  0  0  0
 24 22  1  0  0  0
 24 25  1  0  0  0
 22 23  2  0  0  0
  9 12  2  0  0  0
  9 10  1  0  0  0
 12 13  1  0  0  0
 10 11  2  0  0  0
 13 14  2  0  0  0
 11 14  1  0  0  0
 11 15  1  0  0  0
 16 15  2  0  0  0
 16 19  1  0  0  0
 15 18  1  0  0  0
 19 17  2  0  0  0
 18 21  2  0  0  0
 17 21  1  0  0  0
 17 20  1  0  0  0
 24 26  1  0  0  0
 25 27  1  0  0  0
M  END
> <minimizedAffinity>
-9.28613

$$$$
6FYZ_EBE_A_2001


 27 29  0  0  0  0  0  0  0  0999 V2000
  -10.1574   -5.2030   12.7423 C   0  0  0  0  0  0  0  0  0  0  0  0
  -10.0841   -5.9422   10.2847 C   0  0  0  0  0  0  0  0  0  0  0  0
  -10.6192   -5.1543   11.3182 C   0  0  0  0  0  0  0  0  0  0  0  0
  -10.5839   -5.8509    8.9895 C   0  0  0  0  0  0  0  0  0  0  0  0
  -11.6184   -4.9725    8.7008 C   0  0  0  0  0  0  0  0  0  0  0  0
  -12.1649   -4.1984    9.7159 C   0  0  0  0  0  0  0  0  0  0  0  0
  -11.6686   -4.2822   11.0103 C   0  0  0  0  0  0  0  0  0  0  0  0
  -12.2345   -3.5124   11.9679 F   0  0  0  0  0  0  0  0  0  0  0  0
   -8.6903   -4.0268   14.3757 C   0  0  0  0  0  0  0  0  0  0  0  0
   -7.7025   -3.1047   14.7013 C   0  0  0  0  0  0  0  0  0  0  0  0
   -7.0608   -2.3223   13.7253 C   0  0  0  0  0  0  0  0  0  0  0  0
   -9.0855   -4.2133   13.0576 C   0  0  0  0  0  0  0  0  0  0  0  0
   -8.4616   -3.4448   12.0741 C   0  0  0  0  0  0  0  0  0  0  0  0
   -7.4711   -2.5214   12.4020 C   0  0  0  0  0  0  0  0  0  0  0  0
   -5.9862   -1.3179   14.0892 C   0  0  0  0  0  0  0  0  0  0  0  0
   -5.2540   -0.6132   13.1114 C   0  0  0  0  0  0  0  0  0  0  0  0
   -4.0108    0.5176   14.7514 C   0  0  0  0  0  0  0  0  0  0  0  0
   -5.6544   -1.0249   15.4259 C   0  0  0  0  0  0  0  0  0  0  0  0
   -4.3024    0.2741   13.4580 N   0  0  0  0  0  0  0  0  0  0  0  0
   -2.9490    1.5227   15.1158 C   0  0  0  0  0  0  0  0  0  0  0  0
   -4.6940   -0.1314   15.7207 N   0  0  0  0  0  0  0  0  0  0  0  0
   -9.6914   -6.6039   13.0712 C   0  0  0  0  0  0  0  0  0  0  0  0
   -8.6598   -7.0540   12.5901 O   0  0  0  0  0  0  0  0  0  0  0  0
  -10.4517   -7.3281   13.8939 N   0  0  0  0  0  0  0  0  0  0  0  0
  -10.0716   -8.6242   14.2410 O   0  0  0  0  0  0  0  0  0  0  0  0
  -11.2834   -6.9465   14.2570 H   0  0  0  0  0  0  0  0  0  0  0  0
   -9.2355   -8.8446   13.8014 H   0  0  0  0  0  0  0  0  0  0  0  0
  8  7  1  0  0  0
  6  7  2  0  0  0
  6  5  1  0  0  0
  7  3  1  0  0  0
  5  4  2  0  0  0
  3  1  1  0  0  0
  3  2  2  0  0  0
  1 22  1  0  0  0
  1 12  1  0  0  0
  4  2  1  0  0  0
 24 22  1  0  0  0
 24 25  1  0  0  0
 22 23  2  0  0  0
  9 12  2  0  0  0
  9 10  1  0  0  0
 12 13  1  0  0  0
 10 11  2  0  0  0
 13 14  2  0  0  0
 11 14  1  0  0  0
 11 15  1  0  0  0
 16 15  2  0  0  0
 16 19  1  0  0  0
 15 18  1  0  0  0
 19 17  2  0  0  0
 18 21  2  0  0  0
 17 21  1  0  0  0
 17 20  1  0  0  0
 24 26  1  0  0  0
 25 27  1  0  0  0
M  END
> <minimizedAffinity>
-8.51721

$$$$
