4BC5_5FX_A_1531


 13 12  0  0  0  0  0  0  0  0999 V2000
   14.6871   -2.8351   29.7581 C   0  0  0  0  0  0  0  0  0  0  0  0
   13.5335   -3.2037   29.0261 O   0  0  0  0  0  0  0  0  0  0  0  0
   13.4936   -2.6891   28.2048 H   0  0  0  0  0  0  0  0  0  0  0  0
   16.0201   -3.1802   29.0109 C   0  0  0  0  0  0  0  0  0  0  0  0
   15.9838   -2.7132   27.6552 O   0  0  0  0  0  0  0  0  0  0  0  0
   15.2353   -3.1214   27.1925 H   0  0  0  0  0  0  0  0  0  0  0  0
   16.1036   -4.7200   28.9655 C   0  0  0  0  0  0  0  0  0  0  0  0
   17.3660   -5.0633   28.4003 F   0  0  0  0  0  0  0  0  0  0  0  0
   14.6576   -1.4020   30.2037 C   0  0  0  0  0  0  0  0  0  0  0  0
   15.3480   -1.0885   31.1463 O   0  0  0  0  0  0  0  0  0  0  0  0
   13.7610   -0.3880   29.4392 C   0  0  0  0  0  0  0  0  0  0  0  0
   14.1942   -0.2156   28.0952 O   0  0  0  0  0  0  0  0  0  0  0  0
   14.1421   -1.0637   27.6274 H   0  0  0  0  0  0  0  0  0  0  0  0
 11 12  1  0  0  0
 11  9  1  0  0  0
  9 10  2  0  0  0
  9  1  1  0  0  0
  1  2  1  0  0  0
  1  4  1  0  0  0
  4  5  1  0  0  0
  4  7  1  0  0  0
  7  8  1  0  0  0
 12 13  1  0  0  0
  2  3  1  0  0  0
  5  6  1  0  0  0
M  END
> <minimizedAffinity>
-4.89344

$$$$
4BC5_5FX_A_1531


 13 12  0  0  0  0  0  0  0  0999 V2000
   15.0803   -3.8663   28.8913 C   0  0  0  0  0  0  0  0  0  0  0  0
   14.2865   -4.1446   27.7533 O   0  0  0  0  0  0  0  0  0  0  0  0
   14.8459   -4.1439   26.9609 H   0  0  0  0  0  0  0  0  0  0  0  0
   16.1580   -4.9691   29.1681 C   0  0  0  0  0  0  0  0  0  0  0  0
   16.9683   -5.1972   28.0067 O   0  0  0  0  0  0  0  0  0  0  0  0
   16.4036   -5.4712   27.2672 H   0  0  0  0  0  0  0  0  0  0  0  0
   15.3807   -6.2715   29.4503 C   0  0  0  0  0  0  0  0  0  0  0  0
   14.5948   -6.0556   30.6194 F   0  0  0  0  0  0  0  0  0  0  0  0
   15.6893   -2.4949   28.8520 C   0  0  0  0  0  0  0  0  0  0  0  0
   16.8333   -2.3948   28.4717 O   0  0  0  0  0  0  0  0  0  0  0  0
   14.8334   -1.2719   29.2858 C   0  0  0  0  0  0  0  0  0  0  0  0
   14.5025   -0.4447   28.1767 O   0  0  0  0  0  0  0  0  0  0  0  0
   13.9816   -0.9548   27.5369 H   0  0  0  0  0  0  0  0  0  0  0  0
 11 12  1  0  0  0
 11  9  1  0  0  0
  9 10  2  0  0  0
  9  1  1  0  0  0
  1  2  1  0  0  0
  1  4  1  0  0  0
  4  5  1  0  0  0
  4  7  1  0  0  0
  7  8  1  0  0  0
 12 13  1  0  0  0
  2  3  1  0  0  0
  5  6  1  0  0  0
M  END
> <minimizedAffinity>
-4.60897

$$$$
4BC5_5FX_A_1531


 13 12  0  0  0  0  0  0  0  0999 V2000
   14.7745   -2.5415   30.2433 C   0  0  0  0  0  0  0  0  0  0  0  0
   13.9804   -3.7074   30.3553 O   0  0  0  0  0  0  0  0  0  0  0  0
   13.4250   -3.7974   29.5652 H   0  0  0  0  0  0  0  0  0  0  0  0
   15.7903   -2.6071   29.0523 C   0  0  0  0  0  0  0  0  0  0  0  0
   15.1708   -2.1931   27.8266 O   0  0  0  0  0  0  0  0  0  0  0  0
   14.4106   -2.7657   27.6390 H   0  0  0  0  0  0  0  0  0  0  0  0
   16.1757   -4.0925   28.8946 C   0  0  0  0  0  0  0  0  0  0  0  0
   17.3863   -4.1429   28.1443 F   0  0  0  0  0  0  0  0  0  0  0  0
   13.9559   -1.2840   30.2037 C   0  0  0  0  0  0  0  0  0  0  0  0
   14.5421   -0.2304   30.1055 O   0  0  0  0  0  0  0  0  0  0  0  0
   12.4064   -1.3846   30.2786 C   0  0  0  0  0  0  0  0  0  0  0  0
   11.8812   -2.1745   29.2184 O   0  0  0  0  0  0  0  0  0  0  0  0
   12.2367   -3.0749   29.2792 H   0  0  0  0  0  0  0  0  0  0  0  0
 11 12  1  0  0  0
 11  9  1  0  0  0
  9 10  2  0  0  0
  9  1  1  0  0  0
  1  2  1  0  0  0
  1  4  1  0  0  0
  4  5  1  0  0  0
  4  7  1  0  0  0
  7  8  1  0  0  0
 12 13  1  0  0  0
  2  3  1  0  0  0
  5  6  1  0  0  0
M  END
> <minimizedAffinity>
-4.53416

$$$$
4BC5_5FX_A_1531


 13 12  0  0  0  0  0  0  0  0999 V2000
   15.6420   -2.2145   28.7289 C   0  0  0  0  0  0  0  0  0  0  0  0
   17.0479   -2.0810   28.6386 O   0  0  0  0  0  0  0  0  0  0  0  0
   17.4512   -2.3283   29.4853 H   0  0  0  0  0  0  0  0  0  0  0  0
   15.1835   -3.6934   28.9673 C   0  0  0  0  0  0  0  0  0  0  0  0
   14.7548   -3.8853   30.3226 O   0  0  0  0  0  0  0  0  0  0  0  0
   15.4827   -3.6681   30.9258 H   0  0  0  0  0  0  0  0  0  0  0  0
   16.4322   -4.5730   28.7504 C   0  0  0  0  0  0  0  0  0  0  0  0
   16.2141   -5.8022   29.4379 F   0  0  0  0  0  0  0  0  0  0  0  0
   15.0340   -1.2781   29.7323 C   0  0  0  0  0  0  0  0  0  0  0  0
   15.5777   -1.1706   30.8075 O   0  0  0  0  0  0  0  0  0  0  0  0
   13.7523   -0.4854   29.3509 C   0  0  0  0  0  0  0  0  0  0  0  0
   13.9121    0.2067   28.1183 O   0  0  0  0  0  0  0  0  0  0  0  0
   14.0837   -0.4320   27.4087 H   0  0  0  0  0  0  0  0  0  0  0  0
 11 12  1  0  0  0
 11  9  1  0  0  0
  9 10  2  0  0  0
  9  1  1  0  0  0
  1  2  1  0  0  0
  1  4  1  0  0  0
  4  5  1  0  0  0
  4  7  1  0  0  0
  7  8  1  0  0  0
 12 13  1  0  0  0
  2  3  1  0  0  0
  5  6  1  0  0  0
M  END
> <minimizedAffinity>
-4.48952

$$$$
4BC5_5FX_A_1531


 13 12  0  0  0  0  0  0  0  0999 V2000
   14.4110   -1.9301   30.3975 C   0  0  0  0  0  0  0  0  0  0  0  0
   14.0023   -0.7784   31.1111 O   0  0  0  0  0  0  0  0  0  0  0  0
   13.3521   -0.2864   30.5857 H   0  0  0  0  0  0  0  0  0  0  0  0
   13.2435   -2.9476   30.1609 C   0  0  0  0  0  0  0  0  0  0  0  0
   13.3016   -3.4957   28.8366 O   0  0  0  0  0  0  0  0  0  0  0  0
   13.2454   -2.7778   28.1868 H   0  0  0  0  0  0  0  0  0  0  0  0
   11.9356   -2.1365   30.2666 C   0  0  0  0  0  0  0  0  0  0  0  0
   11.1141   -2.5036   29.1614 F   0  0  0  0  0  0  0  0  0  0  0  0
   15.1229   -1.5975   29.1186 C   0  0  0  0  0  0  0  0  0  0  0  0
   14.6487   -0.7351   28.4151 O   0  0  0  0  0  0  0  0  0  0  0  0
   16.4306   -2.3569   28.7585 C   0  0  0  0  0  0  0  0  0  0  0  0
   16.2182   -3.2991   27.7140 O   0  0  0  0  0  0  0  0  0  0  0  0
   15.9194   -2.8353   26.9161 H   0  0  0  0  0  0  0  0  0  0  0  0
 11 12  1  0  0  0
 11  9  1  0  0  0
  9 10  2  0  0  0
  9  1  1  0  0  0
  1  2  1  0  0  0
  1  4  1  0  0  0
  4  5  1  0  0  0
  4  7  1  0  0  0
  7  8  1  0  0  0
 12 13  1  0  0  0
  2  3  1  0  0  0
  5  6  1  0  0  0
M  END
> <minimizedAffinity>
-4.40985

$$$$
4BC5_5FX_A_1531


 13 12  0  0  0  0  0  0  0  0999 V2000
   14.9353   -1.6552   29.3250 C   0  0  0  0  0  0  0  0  0  0  0  0
   14.5907   -0.7259   28.3150 O   0  0  0  0  0  0  0  0  0  0  0  0
   14.0788   -1.1745   27.6240 H   0  0  0  0  0  0  0  0  0  0  0  0
   13.6866   -2.2351   30.0726 C   0  0  0  0  0  0  0  0  0  0  0  0
   12.5282   -2.2161   29.2269 O   0  0  0  0  0  0  0  0  0  0  0  0
   12.3470   -1.3052   28.9471 H   0  0  0  0  0  0  0  0  0  0  0  0
   13.4098   -1.2827   31.2542 C   0  0  0  0  0  0  0  0  0  0  0  0
   12.1422   -0.6733   31.0244 F   0  0  0  0  0  0  0  0  0  0  0  0
   15.8373   -2.7462   28.8258 C   0  0  0  0  0  0  0  0  0  0  0  0
   16.9557   -2.4414   28.4798 O   0  0  0  0  0  0  0  0  0  0  0  0
   15.3091   -4.2076   28.7838 C   0  0  0  0  0  0  0  0  0  0  0  0
   14.2896   -4.3679   27.8046 O   0  0  0  0  0  0  0  0  0  0  0  0
   14.6483   -4.1606   26.9275 H   0  0  0  0  0  0  0  0  0  0  0  0
 11 12  1  0  0  0
 11  9  1  0  0  0
  9 10  2  0  0  0
  9  1  1  0  0  0
  1  2  1  0  0  0
  1  4  1  0  0  0
  4  5  1  0  0  0
  4  7  1  0  0  0
  7  8  1  0  0  0
 12 13  1  0  0  0
  2  3  1  0  0  0
  5  6  1  0  0  0
M  END
> <minimizedAffinity>
-4.23533

$$$$
4BC5_5FX_A_1531


 13 12  0  0  0  0  0  0  0  0999 V2000
   13.5999   -2.1612   29.8925 C   0  0  0  0  0  0  0  0  0  0  0  0
   13.3157   -3.3320   29.1501 O   0  0  0  0  0  0  0  0  0  0  0  0
   13.0388   -3.0870   28.2533 H   0  0  0  0  0  0  0  0  0  0  0  0
   14.8090   -1.3502   29.3139 C   0  0  0  0  0  0  0  0  0  0  0  0
   14.3824   -0.4752   28.2605 O   0  0  0  0  0  0  0  0  0  0  0  0
   13.9712   -0.9967   27.5535 H   0  0  0  0  0  0  0  0  0  0  0  0
   15.7666   -2.3874   28.6916 C   0  0  0  0  0  0  0  0  0  0  0  0
   17.0854   -1.8530   28.7701 F   0  0  0  0  0  0  0  0  0  0  0  0
   12.3925   -1.2910   30.0874 C   0  0  0  0  0  0  0  0  0  0  0  0
   12.5722   -0.1355   30.3972 O   0  0  0  0  0  0  0  0  0  0  0  0
   10.9773   -1.8984   29.8756 C   0  0  0  0  0  0  0  0  0  0  0  0
   10.7533   -3.0141   30.7293 O   0  0  0  0  0  0  0  0  0  0  0  0
   10.8151   -2.7306   31.6549 H   0  0  0  0  0  0  0  0  0  0  0  0
 11 12  1  0  0  0
 11  9  1  0  0  0
  9 10  2  0  0  0
  9  1  1  0  0  0
  1  2  1  0  0  0
  1  4  1  0  0  0
  4  5  1  0  0  0
  4  7  1  0  0  0
  7  8  1  0  0  0
 12 13  1  0  0  0
  2  3  1  0  0  0
  5  6  1  0  0  0
M  END
> <minimizedAffinity>
-4.22738

$$$$
4BC5_5FX_A_1531


 13 12  0  0  0  0  0  0  0  0999 V2000
   14.5684   -1.7796   30.5254 C   0  0  0  0  0  0  0  0  0  0  0  0
   15.7230   -1.0667   30.9266 O   0  0  0  0  0  0  0  0  0  0  0  0
   16.2431   -0.8268   30.1438 H   0  0  0  0  0  0  0  0  0  0  0  0
   13.5929   -0.9196   29.6518 C   0  0  0  0  0  0  0  0  0  0  0  0
   13.9212    0.4740   29.7376 O   0  0  0  0  0  0  0  0  0  0  0  0
   13.8705    0.7618   30.6626 H   0  0  0  0  0  0  0  0  0  0  0  0
   12.1894   -1.1008   30.2660 C   0  0  0  0  0  0  0  0  0  0  0  0
   11.4409   -1.9333   29.3841 F   0  0  0  0  0  0  0  0  0  0  0  0
   14.8948   -3.0877   29.8655 C   0  0  0  0  0  0  0  0  0  0  0  0
   14.5792   -4.1049   30.4391 O   0  0  0  0  0  0  0  0  0  0  0  0
   15.6068   -3.0835   28.4836 C   0  0  0  0  0  0  0  0  0  0  0  0
   16.8462   -2.3871   28.5353 O   0  0  0  0  0  0  0  0  0  0  0  0
   17.4369   -2.8248   29.1680 H   0  0  0  0  0  0  0  0  0  0  0  0
 11 12  1  0  0  0
 11  9  1  0  0  0
  9 10  2  0  0  0
  9  1  1  0  0  0
  1  2  1  0  0  0
  1  4  1  0  0  0
  4  5  1  0  0  0
  4  7  1  0  0  0
  7  8  1  0  0  0
 12 13  1  0  0  0
  2  3  1  0  0  0
  5  6  1  0  0  0
M  END
> <minimizedAffinity>
-4.14654

$$$$
4BC5_5FX_A_1531


 13 12  0  0  0  0  0  0  0  0999 V2000
   14.6343   -3.2831   29.2654 C   0  0  0  0  0  0  0  0  0  0  0  0
   13.6794   -3.9059   28.4271 O   0  0  0  0  0  0  0  0  0  0  0  0
   13.8458   -3.6547   27.5051 H   0  0  0  0  0  0  0  0  0  0  0  0
   16.0988   -3.7630   28.9839 C   0  0  0  0  0  0  0  0  0  0  0  0
   16.5135   -3.3954   27.6609 O   0  0  0  0  0  0  0  0  0  0  0  0
   15.9104   -3.7899   27.0117 H   0  0  0  0  0  0  0  0  0  0  0  0
   16.0676   -5.3042   29.0452 C   0  0  0  0  0  0  0  0  0  0  0  0
   15.3365   -5.6710   30.2122 F   0  0  0  0  0  0  0  0  0  0  0  0
   14.5301   -1.7858   29.2503 C   0  0  0  0  0  0  0  0  0  0  0  0
   15.0158   -1.1944   28.3134 O   0  0  0  0  0  0  0  0  0  0  0  0
   13.8019   -1.0640   30.4188 C   0  0  0  0  0  0  0  0  0  0  0  0
   14.4445   -1.3054   31.6648 O   0  0  0  0  0  0  0  0  0  0  0  0
   15.3526   -0.9662   31.6313 H   0  0  0  0  0  0  0  0  0  0  0  0
 11 12  1  0  0  0
 11  9  1  0  0  0
  9 10  2  0  0  0
  9  1  1  0  0  0
  1  2  1  0  0  0
  1  4  1  0  0  0
  4  5  1  0  0  0
  4  7  1  0  0  0
  7  8  1  0  0  0
 12 13  1  0  0  0
  2  3  1  0  0  0
  5  6  1  0  0  0
M  END
> <minimizedAffinity>
-4.14065

$$$$
4BC5_5FX_A_1531


 13 12  0  0  0  0  0  0  0  0999 V2000
   12.8736   -1.7614   29.7345 C   0  0  0  0  0  0  0  0  0  0  0  0
   12.9413   -3.0995   29.2789 O   0  0  0  0  0  0  0  0  0  0  0  0
   13.5395   -3.6058   29.8506 H   0  0  0  0  0  0  0  0  0  0  0  0
   12.2518   -1.6351   31.1668 C   0  0  0  0  0  0  0  0  0  0  0  0
   11.9979   -0.2624   31.4964 O   0  0  0  0  0  0  0  0  0  0  0  0
   12.8274    0.2387   31.4555 H   0  0  0  0  0  0  0  0  0  0  0  0
   13.3216   -2.1543   32.1495 C   0  0  0  0  0  0  0  0  0  0  0  0
   13.0224   -3.5203   32.4248 F   0  0  0  0  0  0  0  0  0  0  0  0
   14.1914   -1.0490   29.6385 C   0  0  0  0  0  0  0  0  0  0  0  0
   14.2207    0.1266   29.9225 O   0  0  0  0  0  0  0  0  0  0  0  0
   15.4522   -1.8423   29.1942 C   0  0  0  0  0  0  0  0  0  0  0  0
   15.3252   -2.3236   27.8615 O   0  0  0  0  0  0  0  0  0  0  0  0
   15.2222   -1.5735   27.2553 H   0  0  0  0  0  0  0  0  0  0  0  0
 11 12  1  0  0  0
 11  9  1  0  0  0
  9 10  2  0  0  0
  9  1  1  0  0  0
  1  2  1  0  0  0
  1  4  1  0  0  0
  4  5  1  0  0  0
  4  7  1  0  0  0
  7  8  1  0  0  0
 12 13  1  0  0  0
  2  3  1  0  0  0
  5  6  1  0  0  0
M  END
> <minimizedAffinity>
-4.07541

$$$$
