3EWJ_642_B_1


 37 42  0  0  0  0  0  0  0  0999 V2000
   47.5675   32.2961   42.6827 C   0  0  0  0  0  0  0  0  0  0  0  0
   47.1193   32.5337   43.9905 C   0  0  0  0  0  0  0  0  0  0  0  0
   47.9389   32.2164   45.0750 C   0  0  0  0  0  0  0  0  0  0  0  0
   49.2348   31.6426   44.8691 C   0  0  0  0  0  0  0  0  0  0  0  0
   49.6629   31.3717   43.5584 C   0  0  0  0  0  0  0  0  0  0  0  0
   48.8436   31.7032   42.4751 C   0  0  0  0  0  0  0  0  0  0  0  0
   48.7049   30.8111   38.8472 C   0  0  0  0  0  0  0  0  0  0  0  0
   47.6927   31.7842   39.4345 C   0  0  0  0  0  0  0  0  0  0  0  0
   47.5446   31.2974   38.0040 C   0  0  0  0  0  0  0  0  0  0  0  0
   48.0494   33.2287   39.6328 C   0  0  0  0  0  0  0  0  0  0  0  0
   47.4852   33.7123   40.7482 N   0  0  0  0  0  0  0  0  0  0  0  0
   48.7456   33.8558   38.8638 O   0  0  0  0  0  0  0  0  0  0  0  0
   46.7261   32.6714   41.4651 C   0  0  0  0  0  0  0  0  0  0  0  0
   46.5993   31.4888   40.4697 C   0  0  0  0  0  0  0  0  0  0  0  0
   47.5674   34.6455   41.0509 H   0  0  0  0  0  0  0  0  0  0  0  0
   48.7840   29.4286   39.4343 C   0  0  0  0  0  0  0  0  0  0  0  0
   48.2796   28.4809   38.5988 O   0  0  0  0  0  0  0  0  0  0  0  0
   49.1925   29.0950   40.5748 O   0  0  0  0  0  0  0  0  0  0  0  0
   49.5412   29.7425   41.1555 H   0  0  0  0  0  0  0  0  0  0  0  0
   50.0751   31.3431   45.9269 O   0  0  0  0  0  0  0  0  0  0  0  0
   49.4926   31.0536   47.2068 C   0  0  0  0  0  0  0  0  0  0  0  0
   49.2089   29.5399   47.3872 C   0  0  0  0  0  0  0  0  0  0  0  0
   48.6214   26.7694   47.7232 N   0  0  0  0  0  0  0  0  0  0  0  0
   47.6509   27.6683   47.3894 C   0  0  0  0  0  0  0  0  0  0  0  0
   47.9014   29.0731   47.1862 C   0  0  0  0  0  0  0  0  0  0  0  0
   49.8678   27.2085   47.8673 C   0  0  0  0  0  0  0  0  0  0  0  0
   50.2057   28.5763   47.7306 C   0  0  0  0  0  0  0  0  0  0  0  0
   51.5677   28.9344   47.9384 C   0  0  0  0  0  0  0  0  0  0  0  0
   52.5431   27.9970   48.2612 C   0  0  0  0  0  0  0  0  0  0  0  0
   52.2269   26.6684   48.3764 C   0  0  0  0  0  0  0  0  0  0  0  0
   50.8812   26.2975   48.2035 C   0  0  0  0  0  0  0  0  0  0  0  0
   46.2893   27.1702   47.1355 C   0  0  0  0  0  0  0  0  0  0  0  0
   45.9967   25.8041   46.9957 C   0  0  0  0  0  0  0  0  0  0  0  0
   44.6626   25.4044   46.7340 C   0  0  0  0  0  0  0  0  0  0  0  0
   43.6459   26.3505   46.5682 C   0  0  0  0  0  0  0  0  0  0  0  0
   43.9381   27.6969   46.6792 C   0  0  0  0  0  0  0  0  0  0  0  0
   45.2398   28.1129   46.9664 C   0  0  0  0  0  0  0  0  0  0  0  0
  9  7  1  0  0  0
  8  7  1  0  0  0
  7 16  1  0  0  0
  9  8  1  0  0  0
  8 10  1  0  0  0
  8 14  1  0  0  0
 17 16  2  0  0  0
 16 18  1  0  0  0
 12 10  2  0  0  0
 10 11  1  0  0  0
 11 13  1  0  0  0
 14 13  1  0  0  0
 13  1  1  0  0  0
  1  6  2  0  0  0
  1  2  1  0  0  0
  2  3  2  0  0  0
  3  4  1  0  0  0
  5  4  2  0  0  0
  4 20  1  0  0  0
  6  5  1  0  0  0
 20 21  1  0  0  0
 21 22  1  0  0  0
 25 22  2  0  0  0
 22 27  1  0  0  0
 24 23  2  0  0  0
 23 26  1  0  0  0
 25 24  1  0  0  0
 32 24  1  0  0  0
 27 26  2  0  0  0
 26 31  1  0  0  0
 27 28  1  0  0  0
 28 29  2  0  0  0
 29 30  1  0  0  0
 31 30  2  0  0  0
 37 32  2  0  0  0
 33 32  1  0  0  0
 34 33  2  0  0  0
 35 34  1  0  0  0
 36 35  2  0  0  0
 36 37  1  0  0  0
 18 19  1  0  0  0
 11 15  1  0  0  0
M  END
> <minimizedAffinity>
-13.09502

$$$$
3EWJ_642_B_1


 37 42  0  0  0  0  0  0  0  0999 V2000
   49.0167   31.2844   41.7036 C   0  0  0  0  0  0  0  0  0  0  0  0
   47.7545   31.8064   42.0224 C   0  0  0  0  0  0  0  0  0  0  0  0
   47.4453   32.1185   43.3474 C   0  0  0  0  0  0  0  0  0  0  0  0
   48.4021   31.9051   44.3913 C   0  0  0  0  0  0  0  0  0  0  0  0
   49.6511   31.3464   44.0712 C   0  0  0  0  0  0  0  0  0  0  0  0
   49.9606   31.0477   42.7409 C   0  0  0  0  0  0  0  0  0  0  0  0
   48.6710   34.3503   38.7557 C   0  0  0  0  0  0  0  0  0  0  0  0
   48.9910   32.8637   38.8167 C   0  0  0  0  0  0  0  0  0  0  0  0
   49.2946   33.6603   37.5604 C   0  0  0  0  0  0  0  0  0  0  0  0
   47.8937   31.8429   38.7319 C   0  0  0  0  0  0  0  0  0  0  0  0
   48.1569   30.7907   39.5192 N   0  0  0  0  0  0  0  0  0  0  0  0
   46.9165   31.9709   38.0264 O   0  0  0  0  0  0  0  0  0  0  0  0
   49.4166   30.9738   40.2631 C   0  0  0  0  0  0  0  0  0  0  0  0
   50.1247   32.1796   39.5922 C   0  0  0  0  0  0  0  0  0  0  0  0
   47.5813   29.9953   39.5916 H   0  0  0  0  0  0  0  0  0  0  0  0
   49.4263   35.2773   39.6681 C   0  0  0  0  0  0  0  0  0  0  0  0
   50.4403   35.9210   39.0293 O   0  0  0  0  0  0  0  0  0  0  0  0
   49.2566   35.4578   40.9000 O   0  0  0  0  0  0  0  0  0  0  0  0
   48.5601   35.0177   41.3464 H   0  0  0  0  0  0  0  0  0  0  0  0
   48.1279   32.2301   45.7082 O   0  0  0  0  0  0  0  0  0  0  0  0
   49.0040   31.7390   46.7341 C   0  0  0  0  0  0  0  0  0  0  0  0
   48.7073   30.2599   47.0927 C   0  0  0  0  0  0  0  0  0  0  0  0
   48.0960   27.5533   47.7515 N   0  0  0  0  0  0  0  0  0  0  0  0
   47.1453   28.3992   47.2596 C   0  0  0  0  0  0  0  0  0  0  0  0
   47.4095   29.7672   46.8908 C   0  0  0  0  0  0  0  0  0  0  0  0
   49.3354   28.0110   47.8977 C   0  0  0  0  0  0  0  0  0  0  0  0
   49.6837   29.3512   47.6037 C   0  0  0  0  0  0  0  0  0  0  0  0
   51.0353   29.7370   47.8288 C   0  0  0  0  0  0  0  0  0  0  0  0
   51.9912   28.8516   48.3150 C   0  0  0  0  0  0  0  0  0  0  0  0
   51.6659   27.5476   48.5838 C   0  0  0  0  0  0  0  0  0  0  0  0
   50.3288   27.1535   48.3956 C   0  0  0  0  0  0  0  0  0  0  0  0
   45.7959   27.8685   47.0067 C   0  0  0  0  0  0  0  0  0  0  0  0
   45.5623   26.5286   46.6581 C   0  0  0  0  0  0  0  0  0  0  0  0
   44.2348   26.0978   46.4124 C   0  0  0  0  0  0  0  0  0  0  0  0
   43.1637   26.9955   46.4671 C   0  0  0  0  0  0  0  0  0  0  0  0
   43.3959   28.3207   46.7841 C   0  0  0  0  0  0  0  0  0  0  0  0
   44.6920   28.7615   47.0597 C   0  0  0  0  0  0  0  0  0  0  0  0
  9  7  1  0  0  0
  8  7  1  0  0  0
  7 16  1  0  0  0
  9  8  1  0  0  0
  8 10  1  0  0  0
  8 14  1  0  0  0
 17 16  2  0  0  0
 16 18  1  0  0  0
 12 10  2  0  0  0
 10 11  1  0  0  0
 11 13  1  0  0  0
 14 13  1  0  0  0
 13  1  1  0  0  0
  1  6  2  0  0  0
  1  2  1  0  0  0
  2  3  2  0  0  0
  3  4  1  0  0  0
  5  4  2  0  0  0
  4 20  1  0  0  0
  6  5  1  0  0  0
 20 21  1  0  0  0
 21 22  1  0  0  0
 25 22  2  0  0  0
 22 27  1  0  0  0
 24 23  2  0  0  0
 23 26  1  0  0  0
 25 24  1  0  0  0
 32 24  1  0  0  0
 27 26  2  0  0  0
 26 31  1  0  0  0
 27 28  1  0  0  0
 28 29  2  0  0  0
 29 30  1  0  0  0
 31 30  2  0  0  0
 37 32  2  0  0  0
 33 32  1  0  0  0
 34 33  2  0  0  0
 35 34  1  0  0  0
 36 35  2  0  0  0
 36 37  1  0  0  0
 18 19  1  0  0  0
 11 15  1  0  0  0
M  END
> <minimizedAffinity>
-12.35792

$$$$
3EWJ_642_B_1


 37 42  0  0  0  0  0  0  0  0999 V2000
   47.6070   32.6139   42.3474 C   0  0  0  0  0  0  0  0  0  0  0  0
   47.0308   32.9286   43.5869 C   0  0  0  0  0  0  0  0  0  0  0  0
   47.6769   32.5596   44.7681 C   0  0  0  0  0  0  0  0  0  0  0  0
   48.9230   31.8546   44.7305 C   0  0  0  0  0  0  0  0  0  0  0  0
   49.4763   31.5088   43.4860 C   0  0  0  0  0  0  0  0  0  0  0  0
   48.8318   31.8920   42.3060 C   0  0  0  0  0  0  0  0  0  0  0  0
   48.6603   30.5467   38.7659 C   0  0  0  0  0  0  0  0  0  0  0  0
   47.8507   31.7683   39.1765 C   0  0  0  0  0  0  0  0  0  0  0  0
   47.7022   31.1857   37.7823 C   0  0  0  0  0  0  0  0  0  0  0  0
   48.5053   33.1143   39.2901 C   0  0  0  0  0  0  0  0  0  0  0  0
   47.9836   33.8160   40.3059 N   0  0  0  0  0  0  0  0  0  0  0  0
   49.3779   33.4973   38.5411 O   0  0  0  0  0  0  0  0  0  0  0  0
   46.9614   33.0393   41.0308 C   0  0  0  0  0  0  0  0  0  0  0  0
   46.6467   31.8194   40.1263 C   0  0  0  0  0  0  0  0  0  0  0  0
   48.2496   34.7349   40.5388 H   0  0  0  0  0  0  0  0  0  0  0  0
   48.3861   29.2446   39.4672 C   0  0  0  0  0  0  0  0  0  0  0  0
   49.0886   29.1217   40.6257 O   0  0  0  0  0  0  0  0  0  0  0  0
   47.6603   28.2952   39.0790 O   0  0  0  0  0  0  0  0  0  0  0  0
   47.1737   28.3730   38.2821 H   0  0  0  0  0  0  0  0  0  0  0  0
   49.5946   31.5005   45.8874 O   0  0  0  0  0  0  0  0  0  0  0  0
   48.8262   31.1284   47.0416 C   0  0  0  0  0  0  0  0  0  0  0  0
   48.8095   29.5932   47.2585 C   0  0  0  0  0  0  0  0  0  0  0  0
   48.8445   26.7675   47.6429 N   0  0  0  0  0  0  0  0  0  0  0  0
   49.9971   27.4969   47.6124 C   0  0  0  0  0  0  0  0  0  0  0  0
   50.0306   28.9279   47.4439 C   0  0  0  0  0  0  0  0  0  0  0  0
   47.6870   27.4081   47.5131 C   0  0  0  0  0  0  0  0  0  0  0  0
   47.6186   28.8059   47.3004 C   0  0  0  0  0  0  0  0  0  0  0  0
   46.3245   29.3782   47.1442 C   0  0  0  0  0  0  0  0  0  0  0  0
   45.1622   28.6163   47.1964 C   0  0  0  0  0  0  0  0  0  0  0  0
   45.2196   27.2654   47.4210 C   0  0  0  0  0  0  0  0  0  0  0  0
   46.4902   26.6757   47.5491 C   0  0  0  0  0  0  0  0  0  0  0  0
   51.2734   26.8039   47.8514 C   0  0  0  0  0  0  0  0  0  0  0  0
   51.3448   25.4412   48.1823 C   0  0  0  0  0  0  0  0  0  0  0  0
   52.6114   24.8501   48.4154 C   0  0  0  0  0  0  0  0  0  0  0  0
   53.7829   25.6124   48.3658 C   0  0  0  0  0  0  0  0  0  0  0  0
   53.7113   26.9600   48.0663 C   0  0  0  0  0  0  0  0  0  0  0  0
   52.4769   27.5576   47.8033 C   0  0  0  0  0  0  0  0  0  0  0  0
  9  7  1  0  0  0
  8  7  1  0  0  0
  7 16  1  0  0  0
  9  8  1  0  0  0
  8 10  1  0  0  0
  8 14  1  0  0  0
 17 16  2  0  0  0
 16 18  1  0  0  0
 12 10  2  0  0  0
 10 11  1  0  0  0
 11 13  1  0  0  0
 14 13  1  0  0  0
 13  1  1  0  0  0
  1  6  2  0  0  0
  1  2  1  0  0  0
  2  3  2  0  0  0
  3  4  1  0  0  0
  5  4  2  0  0  0
  4 20  1  0  0  0
  6  5  1  0  0  0
 20 21  1  0  0  0
 21 22  1  0  0  0
 25 22  2  0  0  0
 22 27  1  0  0  0
 24 23  2  0  0  0
 23 26  1  0  0  0
 25 24  1  0  0  0
 32 24  1  0  0  0
 27 26  2  0  0  0
 26 31  1  0  0  0
 27 28  1  0  0  0
 28 29  2  0  0  0
 29 30  1  0  0  0
 31 30  2  0  0  0
 37 32  2  0  0  0
 33 32  1  0  0  0
 34 33  2  0  0  0
 35 34  1  0  0  0
 36 35  2  0  0  0
 36 37  1  0  0  0
 18 19  1  0  0  0
 11 15  1  0  0  0
M  END
> <minimizedAffinity>
-11.67329

$$$$
3EWJ_642_B_1


 37 42  0  0  0  0  0  0  0  0999 V2000
   48.7531   31.0772   45.8360 C   0  0  0  0  0  0  0  0  0  0  0  0
   49.9152   30.6866   45.1544 C   0  0  0  0  0  0  0  0  0  0  0  0
   50.1077   31.0762   43.8278 C   0  0  0  0  0  0  0  0  0  0  0  0
   49.1263   31.8674   43.1484 C   0  0  0  0  0  0  0  0  0  0  0  0
   47.9469   32.2236   43.8241 C   0  0  0  0  0  0  0  0  0  0  0  0
   47.7648   31.8419   45.1567 C   0  0  0  0  0  0  0  0  0  0  0  0
   50.8976   27.7936   47.5179 C   0  0  0  0  0  0  0  0  0  0  0  0
   49.7804   28.7461   47.9191 C   0  0  0  0  0  0  0  0  0  0  0  0
   50.4772   27.8992   48.9691 C   0  0  0  0  0  0  0  0  0  0  0  0
   48.3488   28.4152   47.6121 C   0  0  0  0  0  0  0  0  0  0  0  0
   47.6592   29.5204   47.2969 N   0  0  0  0  0  0  0  0  0  0  0  0
   47.8979   27.2913   47.6636 O   0  0  0  0  0  0  0  0  0  0  0  0
   48.5221   30.7158   47.3014 C   0  0  0  0  0  0  0  0  0  0  0  0
   49.8368   30.2774   47.9977 C   0  0  0  0  0  0  0  0  0  0  0  0
   46.6970   29.5324   47.0885 H   0  0  0  0  0  0  0  0  0  0  0  0
   52.1718   28.3815   46.9766 C   0  0  0  0  0  0  0  0  0  0  0  0
   53.2285   28.1856   47.8106 O   0  0  0  0  0  0  0  0  0  0  0  0
   52.3300   29.0450   45.9213 O   0  0  0  0  0  0  0  0  0  0  0  0
   51.6066   29.1839   45.3423 H   0  0  0  0  0  0  0  0  0  0  0  0
   49.3062   32.2869   41.8420 O   0  0  0  0  0  0  0  0  0  0  0  0
   48.2677   33.0573   41.2182 C   0  0  0  0  0  0  0  0  0  0  0  0
   47.9773   32.5782   39.7724 C   0  0  0  0  0  0  0  0  0  0  0  0
   47.4366   31.7614   37.0940 N   0  0  0  0  0  0  0  0  0  0  0  0
   47.7782   33.0484   37.3913 C   0  0  0  0  0  0  0  0  0  0  0  0
   48.0827   33.5046   38.7242 C   0  0  0  0  0  0  0  0  0  0  0  0
   47.3831   30.8762   38.0843 C   0  0  0  0  0  0  0  0  0  0  0  0
   47.6233   31.2371   39.4318 C   0  0  0  0  0  0  0  0  0  0  0  0
   47.5069   30.2108   40.4114 C   0  0  0  0  0  0  0  0  0  0  0  0
   47.1741   28.9013   40.0818 C   0  0  0  0  0  0  0  0  0  0  0  0
   46.9589   28.5403   38.7772 C   0  0  0  0  0  0  0  0  0  0  0  0
   47.0405   29.5458   37.7970 C   0  0  0  0  0  0  0  0  0  0  0  0
   47.9316   34.0077   36.2857 C   0  0  0  0  0  0  0  0  0  0  0  0
   49.1686   34.5771   35.9434 C   0  0  0  0  0  0  0  0  0  0  0  0
   49.2317   35.5078   34.8767 C   0  0  0  0  0  0  0  0  0  0  0  0
   48.0764   35.9002   34.1930 C   0  0  0  0  0  0  0  0  0  0  0  0
   46.8542   35.3603   34.5469 C   0  0  0  0  0  0  0  0  0  0  0  0
   46.7721   34.4187   35.5749 C   0  0  0  0  0  0  0  0  0  0  0  0
  9  7  1  0  0  0
  8  7  1  0  0  0
  7 16  1  0  0  0
  9  8  1  0  0  0
  8 10  1  0  0  0
  8 14  1  0  0  0
 17 16  2  0  0  0
 16 18  1  0  0  0
 12 10  2  0  0  0
 10 11  1  0  0  0
 11 13  1  0  0  0
 14 13  1  0  0  0
 13  1  1  0  0  0
  1  6  2  0  0  0
  1  2  1  0  0  0
  2  3  2  0  0  0
  3  4  1  0  0  0
  5  4  2  0  0  0
  4 20  1  0  0  0
  6  5  1  0  0  0
 20 21  1  0  0  0
 21 22  1  0  0  0
 25 22  2  0  0  0
 22 27  1  0  0  0
 24 23  2  0  0  0
 23 26  1  0  0  0
 25 24  1  0  0  0
 32 24  1  0  0  0
 27 26  2  0  0  0
 26 31  1  0  0  0
 27 28  1  0  0  0
 28 29  2  0  0  0
 29 30  1  0  0  0
 31 30  2  0  0  0
 37 32  2  0  0  0
 33 32  1  0  0  0
 34 33  2  0  0  0
 35 34  1  0  0  0
 36 35  2  0  0  0
 36 37  1  0  0  0
 18 19  1  0  0  0
 11 15  1  0  0  0
M  END
> <minimizedAffinity>
-10.98086

$$$$
3EWJ_642_B_1


 37 42  0  0  0  0  0  0  0  0999 V2000
   48.8224   31.0466   45.7942 C   0  0  0  0  0  0  0  0  0  0  0  0
   49.9719   30.6065   45.1216 C   0  0  0  0  0  0  0  0  0  0  0  0
   50.1805   30.9696   43.7899 C   0  0  0  0  0  0  0  0  0  0  0  0
   49.2282   31.7838   43.0962 C   0  0  0  0  0  0  0  0  0  0  0  0
   48.0602   32.1900   43.7635 C   0  0  0  0  0  0  0  0  0  0  0  0
   47.8622   31.8345   45.1011 C   0  0  0  0  0  0  0  0  0  0  0  0
   50.8867   27.7465   47.5428 C   0  0  0  0  0  0  0  0  0  0  0  0
   49.7882   28.7294   47.9218 C   0  0  0  0  0  0  0  0  0  0  0  0
   50.4611   27.8856   48.9897 C   0  0  0  0  0  0  0  0  0  0  0  0
   48.3514   28.4243   47.6124 C   0  0  0  0  0  0  0  0  0  0  0  0
   47.6875   29.5385   47.2748 N   0  0  0  0  0  0  0  0  0  0  0  0
   47.8761   27.3114   47.6801 O   0  0  0  0  0  0  0  0  0  0  0  0
   48.5759   30.7150   47.2641 C   0  0  0  0  0  0  0  0  0  0  0  0
   49.8772   30.2603   47.9750 C   0  0  0  0  0  0  0  0  0  0  0  0
   46.7269   29.5677   47.0608 H   0  0  0  0  0  0  0  0  0  0  0  0
   52.1761   28.2977   46.9988 C   0  0  0  0  0  0  0  0  0  0  0  0
   53.2431   27.9935   47.7860 O   0  0  0  0  0  0  0  0  0  0  0  0
   52.3416   29.0165   45.9816 O   0  0  0  0  0  0  0  0  0  0  0  0
   51.6112   29.2300   45.4349 H   0  0  0  0  0  0  0  0  0  0  0  0
   49.4252   32.1775   41.7843 O   0  0  0  0  0  0  0  0  0  0  0  0
   48.3866   32.9181   41.1256 C   0  0  0  0  0  0  0  0  0  0  0  0
   48.8150   33.3877   39.7113 C   0  0  0  0  0  0  0  0  0  0  0  0
   49.6129   34.3132   37.1345 N   0  0  0  0  0  0  0  0  0  0  0  0
   49.8779   35.0320   38.2634 C   0  0  0  0  0  0  0  0  0  0  0  0
   49.5160   34.5967   39.5888 C   0  0  0  0  0  0  0  0  0  0  0  0
   48.9895   33.1459   37.2596 C   0  0  0  0  0  0  0  0  0  0  0  0
   48.5560   32.6534   38.5139 C   0  0  0  0  0  0  0  0  0  0  0  0
   47.8707   31.4057   38.5220 C   0  0  0  0  0  0  0  0  0  0  0  0
   47.6273   30.6824   37.3593 C   0  0  0  0  0  0  0  0  0  0  0  0
   48.0608   31.1437   36.1437 C   0  0  0  0  0  0  0  0  0  0  0  0
   48.7146   32.3886   36.1102 C   0  0  0  0  0  0  0  0  0  0  0  0
   50.6519   36.2776   38.1376 C   0  0  0  0  0  0  0  0  0  0  0  0
   51.9176   36.3246   37.5315 C   0  0  0  0  0  0  0  0  0  0  0  0
   52.6087   37.5599   37.4649 C   0  0  0  0  0  0  0  0  0  0  0  0
   52.0700   38.7189   38.0330 C   0  0  0  0  0  0  0  0  0  0  0  0
   50.8358   38.6679   38.6534 C   0  0  0  0  0  0  0  0  0  0  0  0
   50.1231   37.4682   38.7046 C   0  0  0  0  0  0  0  0  0  0  0  0
  9  7  1  0  0  0
  8  7  1  0  0  0
  7 16  1  0  0  0
  9  8  1  0  0  0
  8 10  1  0  0  0
  8 14  1  0  0  0
 17 16  2  0  0  0
 16 18  1  0  0  0
 12 10  2  0  0  0
 10 11  1  0  0  0
 11 13  1  0  0  0
 14 13  1  0  0  0
 13  1  1  0  0  0
  1  6  2  0  0  0
  1  2  1  0  0  0
  2  3  2  0  0  0
  3  4  1  0  0  0
  5  4  2  0  0  0
  4 20  1  0  0  0
  6  5  1  0  0  0
 20 21  1  0  0  0
 21 22  1  0  0  0
 25 22  2  0  0  0
 22 27  1  0  0  0
 24 23  2  0  0  0
 23 26  1  0  0  0
 25 24  1  0  0  0
 32 24  1  0  0  0
 27 26  2  0  0  0
 26 31  1  0  0  0
 27 28  1  0  0  0
 28 29  2  0  0  0
 29 30  1  0  0  0
 31 30  2  0  0  0
 37 32  2  0  0  0
 33 32  1  0  0  0
 34 33  2  0  0  0
 35 34  1  0  0  0
 36 35  2  0  0  0
 36 37  1  0  0  0
 18 19  1  0  0  0
 11 15  1  0  0  0
M  END
> <minimizedAffinity>
-10.80993

$$$$
3EWJ_642_B_1


 37 42  0  0  0  0  0  0  0  0999 V2000
   48.7105   31.4186   45.4755 C   0  0  0  0  0  0  0  0  0  0  0  0
   49.8132   30.8228   44.8457 C   0  0  0  0  0  0  0  0  0  0  0  0
   50.0764   31.0927   43.5017 C   0  0  0  0  0  0  0  0  0  0  0  0
   49.2271   31.9689   42.7520 C   0  0  0  0  0  0  0  0  0  0  0  0
   48.1024   32.5328   43.3777 C   0  0  0  0  0  0  0  0  0  0  0  0
   47.8506   32.2695   44.7275 C   0  0  0  0  0  0  0  0  0  0  0  0
   50.7105   28.2552   47.5257 C   0  0  0  0  0  0  0  0  0  0  0  0
   49.5992   29.2598   47.7947 C   0  0  0  0  0  0  0  0  0  0  0  0
   50.2333   28.4952   48.9429 C   0  0  0  0  0  0  0  0  0  0  0  0
   48.1744   28.9300   47.4564 C   0  0  0  0  0  0  0  0  0  0  0  0
   47.5231   30.0160   47.0174 N   0  0  0  0  0  0  0  0  0  0  0  0
   47.6969   27.8235   47.5856 O   0  0  0  0  0  0  0  0  0  0  0  0
   48.4115   31.1910   46.9554 C   0  0  0  0  0  0  0  0  0  0  0  0
   49.6864   30.7909   47.7427 C   0  0  0  0  0  0  0  0  0  0  0  0
   46.5709   30.0277   46.7677 H   0  0  0  0  0  0  0  0  0  0  0  0
   52.0186   28.7698   46.9905 C   0  0  0  0  0  0  0  0  0  0  0  0
   52.9888   28.8096   47.9433 O   0  0  0  0  0  0  0  0  0  0  0  0
   52.2678   29.1942   45.8344 O   0  0  0  0  0  0  0  0  0  0  0  0
   51.6043   29.1698   45.1733 H   0  0  0  0  0  0  0  0  0  0  0  0
   49.4819   32.2715   41.4259 O   0  0  0  0  0  0  0  0  0  0  0  0
   48.4006   32.7458   40.6092 C   0  0  0  0  0  0  0  0  0  0  0  0
   48.2880   31.9574   39.2788 C   0  0  0  0  0  0  0  0  0  0  0  0
   48.1113   30.4550   36.8612 N   0  0  0  0  0  0  0  0  0  0  0  0
   48.3784   29.8533   38.0561 C   0  0  0  0  0  0  0  0  0  0  0  0
   48.4553   30.5648   39.3072 C   0  0  0  0  0  0  0  0  0  0  0  0
   47.9076   31.7685   36.8458 C   0  0  0  0  0  0  0  0  0  0  0  0
   48.0041   32.5601   38.0154 C   0  0  0  0  0  0  0  0  0  0  0  0
   47.7966   33.9611   37.8723 C   0  0  0  0  0  0  0  0  0  0  0  0
   47.5083   34.5496   36.6456 C   0  0  0  0  0  0  0  0  0  0  0  0
   47.3944   33.7872   35.5124 C   0  0  0  0  0  0  0  0  0  0  0  0
   47.6244   32.4043   35.6269 C   0  0  0  0  0  0  0  0  0  0  0  0
   48.5094   28.3877   38.0909 C   0  0  0  0  0  0  0  0  0  0  0  0
   48.1973   27.6264   39.2287 C   0  0  0  0  0  0  0  0  0  0  0  0
   48.3673   26.2201   39.1896 C   0  0  0  0  0  0  0  0  0  0  0  0
   48.8830   25.5876   38.0538 C   0  0  0  0  0  0  0  0  0  0  0  0
   49.2157   26.3393   36.9425 C   0  0  0  0  0  0  0  0  0  0  0  0
   49.0284   27.7231   36.9474 C   0  0  0  0  0  0  0  0  0  0  0  0
  9  7  1  0  0  0
  8  7  1  0  0  0
  7 16  1  0  0  0
  9  8  1  0  0  0
  8 10  1  0  0  0
  8 14  1  0  0  0
 17 16  2  0  0  0
 16 18  1  0  0  0
 12 10  2  0  0  0
 10 11  1  0  0  0
 11 13  1  0  0  0
 14 13  1  0  0  0
 13  1  1  0  0  0
  1  6  2  0  0  0
  1  2  1  0  0  0
  2  3  2  0  0  0
  3  4  1  0  0  0
  5  4  2  0  0  0
  4 20  1  0  0  0
  6  5  1  0  0  0
 20 21  1  0  0  0
 21 22  1  0  0  0
 25 22  2  0  0  0
 22 27  1  0  0  0
 24 23  2  0  0  0
 23 26  1  0  0  0
 25 24  1  0  0  0
 32 24  1  0  0  0
 27 26  2  0  0  0
 26 31  1  0  0  0
 27 28  1  0  0  0
 28 29  2  0  0  0
 29 30  1  0  0  0
 31 30  2  0  0  0
 37 32  2  0  0  0
 33 32  1  0  0  0
 34 33  2  0  0  0
 35 34  1  0  0  0
 36 35  2  0  0  0
 36 37  1  0  0  0
 18 19  1  0  0  0
 11 15  1  0  0  0
M  END
> <minimizedAffinity>
-10.80987

$$$$
