4KP5_E1F_A_302


 23 24  0  0  0  0  0  0  0  0999 V2000
   26.3854    5.7904   11.1580 C   0  0  0  0  0  0  0  0  0  0  0  0
   26.0967    4.3147    9.2174 C   0  0  0  0  0  0  0  0  0  0  0  0
   26.6530    3.8000    7.7518 Cl  0  0  0  0  0  0  0  0  0  0  0  0
   26.7774    5.3847    9.9035 C   0  0  0  0  0  0  0  0  0  0  0  0
   25.2270    5.2681   11.7338 C   0  0  0  0  0  0  0  0  0  0  0  0
   24.5265    4.1564   11.1234 C   0  0  0  0  0  0  0  0  0  0  0  0
   24.9562    3.7857    9.8417 C   0  0  0  0  0  0  0  0  0  0  0  0
   23.9327    2.5696    7.7004 O   0  0  0  0  0  0  0  0  0  0  0  0
   24.1093    2.3151    9.1906 S   0  0  0  0  0  0  0  0  0  0  0  0
   22.7262    2.1686    9.9151 N   0  0  0  0  0  0  0  0  0  0  0  0
   25.0331    1.1428    9.5523 O   0  0  0  0  0  0  0  0  0  0  0  0
   22.8793    1.9994   10.9092 H   0  0  0  0  0  0  0  0  0  0  0  0
   22.2125    1.3849    9.5120 H   0  0  0  0  0  0  0  0  0  0  0  0
   27.2059    6.8977   11.7416 C   0  0  0  0  0  0  0  0  0  0  0  0
   28.4059    6.6254   11.8033 O   0  0  0  0  0  0  0  0  0  0  0  0
   26.4996    8.1713   12.2042 C   0  0  0  0  0  0  0  0  0  0  0  0
   26.8246    8.4692   14.0258 S   0  0  0  0  0  0  0  0  0  0  0  0
   23.5876    6.4064   15.0143 C   0  0  0  0  0  0  0  0  0  0  0  0
   25.7739    7.1948   14.6581 C   0  0  0  0  0  0  0  0  0  0  0  0
   26.2687    6.0115   15.1493 N   0  0  0  0  0  0  0  0  0  0  0  0
   25.4355    5.0200   15.5472 C   0  0  0  0  0  0  0  0  0  0  0  0
   24.0717    5.1894   15.4995 C   0  0  0  0  0  0  0  0  0  0  0  0
   24.4205    7.4081   14.6164 N   0  0  0  0  0  0  0  0  0  0  0  0
 17 19  1  0  0  0
 17 16  1  0  0  0
 20 19  2  0  0  0
 20 21  1  0  0  0
 19 23  1  0  0  0
 16 14  1  0  0  0
 15 14  2  0  0  0
 21 22  2  0  0  0
 14  1  1  0  0  0
  5  1  2  0  0  0
  5  6  1  0  0  0
  1  4  1  0  0  0
 23 18  2  0  0  0
 22 18  1  0  0  0
  6  7  2  0  0  0
  4  2  2  0  0  0
  7  2  1  0  0  0
  7  9  1  0  0  0
  2  3  1  0  0  0
 10  9  1  0  0  0
 11  9  2  0  0  0
  9  8  2  0  0  0
 10 12  1  0  0  0
 10 13  1  0  0  0
M  END
> <minimizedAffinity>
-8.11898

$$$$
4KP5_E1F_A_302


 23 24  0  0  0  0  0  0  0  0999 V2000
   26.6552    6.1777   10.3466 C   0  0  0  0  0  0  0  0  0  0  0  0
   24.8962    4.5270   10.8029 C   0  0  0  0  0  0  0  0  0  0  0  0
   23.6764    4.0133   11.7880 Cl  0  0  0  0  0  0  0  0  0  0  0  0
   25.6790    5.6786   11.1772 C   0  0  0  0  0  0  0  0  0  0  0  0
   27.0054    5.4905    9.1840 C   0  0  0  0  0  0  0  0  0  0  0  0
   26.2271    4.3587    8.7234 C   0  0  0  0  0  0  0  0  0  0  0  0
   25.2506    3.8807    9.6083 C   0  0  0  0  0  0  0  0  0  0  0  0
   22.8037    2.8686    9.2914 O   0  0  0  0  0  0  0  0  0  0  0  0
   24.2410    2.5369    8.9163 S   0  0  0  0  0  0  0  0  0  0  0  0
   24.7019    1.1808    9.5549 N   0  0  0  0  0  0  0  0  0  0  0  0
   24.5486    2.5552    7.4118 O   0  0  0  0  0  0  0  0  0  0  0  0
   25.6664    0.9882    9.2849 H   0  0  0  0  0  0  0  0  0  0  0  0
   24.0993    0.4271    9.2243 H   0  0  0  0  0  0  0  0  0  0  0  0
   27.3628    7.3879   10.8704 C   0  0  0  0  0  0  0  0  0  0  0  0
   27.2737    8.3598   10.1185 O   0  0  0  0  0  0  0  0  0  0  0  0
   28.1090    7.2855   12.2000 C   0  0  0  0  0  0  0  0  0  0  0  0
   27.4146    8.5165   13.4309 S   0  0  0  0  0  0  0  0  0  0  0  0
   25.3782    5.5695   15.1276 C   0  0  0  0  0  0  0  0  0  0  0  0
   26.0754    7.5225   14.0194 C   0  0  0  0  0  0  0  0  0  0  0  0
   24.7679    7.9375   13.9517 N   0  0  0  0  0  0  0  0  0  0  0  0
   23.7719    7.1919   14.4883 C   0  0  0  0  0  0  0  0  0  0  0  0
   24.0448    5.9834   15.0847 C   0  0  0  0  0  0  0  0  0  0  0  0
   26.3831    6.3131   14.5866 N   0  0  0  0  0  0  0  0  0  0  0  0
 17 19  1  0  0  0
 17 16  1  0  0  0
 20 19  2  0  0  0
 20 21  1  0  0  0
 19 23  1  0  0  0
 16 14  1  0  0  0
 15 14  2  0  0  0
 21 22  2  0  0  0
 14  1  1  0  0  0
  5  1  2  0  0  0
  5  6  1  0  0  0
  1  4  1  0  0  0
 23 18  2  0  0  0
 22 18  1  0  0  0
  6  7  2  0  0  0
  4  2  2  0  0  0
  7  2  1  0  0  0
  7  9  1  0  0  0
  2  3  1  0  0  0
 10  9  1  0  0  0
 11  9  2  0  0  0
  9  8  2  0  0  0
 10 12  1  0  0  0
 10 13  1  0  0  0
M  END
> <minimizedAffinity>
-7.29369

$$$$
4KP5_E1F_A_302


 23 24  0  0  0  0  0  0  0  0999 V2000
   25.7148    5.7996   11.6850 C   0  0  0  0  0  0  0  0  0  0  0  0
   25.8273    4.4764    9.6201 C   0  0  0  0  0  0  0  0  0  0  0  0
   26.6018    4.1587    8.1984 Cl  0  0  0  0  0  0  0  0  0  0  0  0
   26.2906    5.5526   10.4604 C   0  0  0  0  0  0  0  0  0  0  0  0
   24.5729    5.1004   12.0767 C   0  0  0  0  0  0  0  0  0  0  0  0
   24.0867    3.9741   11.3060 C   0  0  0  0  0  0  0  0  0  0  0  0
   24.6984    3.7685   10.0616 C   0  0  0  0  0  0  0  0  0  0  0  0
   24.1371    2.6156    7.7232 O   0  0  0  0  0  0  0  0  0  0  0  0
   24.1165    2.2739    9.2063 S   0  0  0  0  0  0  0  0  0  0  0  0
   22.6643    1.9451    9.6987 N   0  0  0  0  0  0  0  0  0  0  0  0
   25.0944    1.1722    9.6407 O   0  0  0  0  0  0  0  0  0  0  0  0
   22.6853    1.7211   10.6936 H   0  0  0  0  0  0  0  0  0  0  0  0
   22.3013    1.1467    9.1780 H   0  0  0  0  0  0  0  0  0  0  0  0
   26.3229    6.9375   12.4434 C   0  0  0  0  0  0  0  0  0  0  0  0
   26.8479    6.5844   13.5006 O   0  0  0  0  0  0  0  0  0  0  0  0
   26.2065    8.3491   11.8700 C   0  0  0  0  0  0  0  0  0  0  0  0
   27.8791    9.1948   11.8816 S   0  0  0  0  0  0  0  0  0  0  0  0
   30.1399    6.4469   10.1358 C   0  0  0  0  0  0  0  0  0  0  0  0
   28.6511    8.1943   10.6445 C   0  0  0  0  0  0  0  0  0  0  0  0
   28.3121    8.2773    9.3161 N   0  0  0  0  0  0  0  0  0  0  0  0
   28.8594    7.4380    8.4040 C   0  0  0  0  0  0  0  0  0  0  0  0
   29.7944    6.5039    8.7836 C   0  0  0  0  0  0  0  0  0  0  0  0
   29.5958    7.2905   11.0565 N   0  0  0  0  0  0  0  0  0  0  0  0
 17 19  1  0  0  0
 17 16  1  0  0  0
 20 19  2  0  0  0
 20 21  1  0  0  0
 19 23  1  0  0  0
 16 14  1  0  0  0
 15 14  2  0  0  0
 21 22  2  0  0  0
 14  1  1  0  0  0
  5  1  2  0  0  0
  5  6  1  0  0  0
  1  4  1  0  0  0
 23 18  2  0  0  0
 22 18  1  0  0  0
  6  7  2  0  0  0
  4  2  2  0  0  0
  7  2  1  0  0  0
  7  9  1  0  0  0
  2  3  1  0  0  0
 10  9  1  0  0  0
 11  9  2  0  0  0
  9  8  2  0  0  0
 10 12  1  0  0  0
 10 13  1  0  0  0
M  END
> <minimizedAffinity>
-7.27356

$$$$
4KP5_E1F_A_302


 23 24  0  0  0  0  0  0  0  0999 V2000
   27.3822    5.7034    9.5310 C   0  0  0  0  0  0  0  0  0  0  0  0
   25.4940    4.7153   10.7498 C   0  0  0  0  0  0  0  0  0  0  0  0
   24.5974    4.6505   12.1333 Cl  0  0  0  0  0  0  0  0  0  0  0  0
   26.6539    5.5697   10.6902 C   0  0  0  0  0  0  0  0  0  0  0  0
   27.0952    4.9014    8.4262 C   0  0  0  0  0  0  0  0  0  0  0  0
   25.9151    4.0613    8.4006 C   0  0  0  0  0  0  0  0  0  0  0  0
   25.2114    3.9495    9.6078 C   0  0  0  0  0  0  0  0  0  0  0  0
   23.4565    2.7789    7.9764 O   0  0  0  0  0  0  0  0  0  0  0  0
   23.6838    2.9744    9.4686 S   0  0  0  0  0  0  0  0  0  0  0  0
   22.5103    3.7804   10.1265 N   0  0  0  0  0  0  0  0  0  0  0  0
   23.9679    1.6918   10.2639 O   0  0  0  0  0  0  0  0  0  0  0  0
   22.6928    3.8938   11.1236 H   0  0  0  0  0  0  0  0  0  0  0  0
   21.6348    3.2734    9.9965 H   0  0  0  0  0  0  0  0  0  0  0  0
   28.5436    6.6424    9.6273 C   0  0  0  0  0  0  0  0  0  0  0  0
   28.5936    7.4423    8.6916 O   0  0  0  0  0  0  0  0  0  0  0  0
   29.5122    6.4962   10.8000 C   0  0  0  0  0  0  0  0  0  0  0  0
   29.6886    8.1284   11.7041 S   0  0  0  0  0  0  0  0  0  0  0  0
   25.8899    8.9365   12.4963 C   0  0  0  0  0  0  0  0  0  0  0  0
   28.0998    8.1337   12.4811 C   0  0  0  0  0  0  0  0  0  0  0  0
   27.7955    7.3084   13.5359 N   0  0  0  0  0  0  0  0  0  0  0  0
   26.5443    7.2738   14.0546 C   0  0  0  0  0  0  0  0  0  0  0  0
   25.5566    8.0910   13.5569 C   0  0  0  0  0  0  0  0  0  0  0  0
   27.1470    8.9783   11.9734 N   0  0  0  0  0  0  0  0  0  0  0  0
 17 19  1  0  0  0
 17 16  1  0  0  0
 20 19  2  0  0  0
 20 21  1  0  0  0
 19 23  1  0  0  0
 16 14  1  0  0  0
 15 14  2  0  0  0
 21 22  2  0  0  0
 14  1  1  0  0  0
  5  1  2  0  0  0
  5  6  1  0  0  0
  1  4  1  0  0  0
 23 18  2  0  0  0
 22 18  1  0  0  0
  6  7  2  0  0  0
  4  2  2  0  0  0
  7  2  1  0  0  0
  7  9  1  0  0  0
  2  3  1  0  0  0
 10  9  1  0  0  0
 11  9  2  0  0  0
  9  8  2  0  0  0
 10 12  1  0  0  0
 10 13  1  0  0  0
M  END
> <minimizedAffinity>
-7.20584

$$$$
4KP5_E1F_A_302


 23 24  0  0  0  0  0  0  0  0999 V2000
   26.7335    5.8936   10.6568 C   0  0  0  0  0  0  0  0  0  0  0  0
   26.0799    4.2570    8.9475 C   0  0  0  0  0  0  0  0  0  0  0  0
   26.4010    3.5404    7.4965 Cl  0  0  0  0  0  0  0  0  0  0  0  0
   26.9280    5.3228    9.4205 C   0  0  0  0  0  0  0  0  0  0  0  0
   25.6187    5.5480   11.4210 C   0  0  0  0  0  0  0  0  0  0  0  0
   24.7571    4.4508   11.0300 C   0  0  0  0  0  0  0  0  0  0  0  0
   24.9884    3.9082    9.7583 C   0  0  0  0  0  0  0  0  0  0  0  0
   23.4617    2.6679    7.9576 O   0  0  0  0  0  0  0  0  0  0  0  0
   23.9474    2.4655    9.3858 S   0  0  0  0  0  0  0  0  0  0  0  0
   22.7509    2.4329   10.3991 N   0  0  0  0  0  0  0  0  0  0  0  0
   24.8685    1.2558    9.6017 O   0  0  0  0  0  0  0  0  0  0  0  0
   23.1093    2.2963   11.3442 H   0  0  0  0  0  0  0  0  0  0  0  0
   22.1231    1.6655   10.1593 H   0  0  0  0  0  0  0  0  0  0  0  0
   27.7099    6.9721   11.0079 C   0  0  0  0  0  0  0  0  0  0  0  0
   28.5994    6.5861   11.7680 O   0  0  0  0  0  0  0  0  0  0  0  0
   27.4928    8.3739   10.4400 C   0  0  0  0  0  0  0  0  0  0  0  0
   29.0933    9.0418    9.7294 S   0  0  0  0  0  0  0  0  0  0  0  0
   26.8096   12.1370    8.7731 C   0  0  0  0  0  0  0  0  0  0  0  0
   28.5444   10.6986    9.4439 C   0  0  0  0  0  0  0  0  0  0  0  0
   29.3144   11.7916    9.7578 N   0  0  0  0  0  0  0  0  0  0  0  0
   28.8328   13.0491    9.6073 C   0  0  0  0  0  0  0  0  0  0  0  0
   27.5708   13.2605    9.1038 C   0  0  0  0  0  0  0  0  0  0  0  0
   27.2899   10.8707    8.9188 N   0  0  0  0  0  0  0  0  0  0  0  0
 17 19  1  0  0  0
 17 16  1  0  0  0
 20 19  2  0  0  0
 20 21  1  0  0  0
 19 23  1  0  0  0
 16 14  1  0  0  0
 15 14  2  0  0  0
 21 22  2  0  0  0
 14  1  1  0  0  0
  5  1  2  0  0  0
  5  6  1  0  0  0
  1  4  1  0  0  0
 23 18  2  0  0  0
 22 18  1  0  0  0
  6  7  2  0  0  0
  4  2  2  0  0  0
  7  2  1  0  0  0
  7  9  1  0  0  0
  2  3  1  0  0  0
 10  9  1  0  0  0
 11  9  2  0  0  0
  9  8  2  0  0  0
 10 12  1  0  0  0
 10 13  1  0  0  0
M  END
> <minimizedAffinity>
-7.10037

$$$$
4KP5_E1F_A_302


 23 24  0  0  0  0  0  0  0  0999 V2000
   26.9424    5.9009   10.6723 C   0  0  0  0  0  0  0  0  0  0  0  0
   26.0306    4.2447    9.1062 C   0  0  0  0  0  0  0  0  0  0  0  0
   26.1706    3.4488    7.6677 Cl  0  0  0  0  0  0  0  0  0  0  0  0
   26.9858    5.2679    9.4518 C   0  0  0  0  0  0  0  0  0  0  0  0
   25.8819    5.6646   11.5474 C   0  0  0  0  0  0  0  0  0  0  0  0
   24.9188    4.6143   11.2860 C   0  0  0  0  0  0  0  0  0  0  0  0
   24.9973    4.0055   10.0257 C   0  0  0  0  0  0  0  0  0  0  0  0
   22.8492    2.7374   10.9688 O   0  0  0  0  0  0  0  0  0  0  0  0
   23.8351    2.6239    9.8148 S   0  0  0  0  0  0  0  0  0  0  0  0
   24.6370    1.2776    9.8761 N   0  0  0  0  0  0  0  0  0  0  0  0
   23.2362    2.8303    8.4158 O   0  0  0  0  0  0  0  0  0  0  0  0
   25.2870    1.2329    9.0912 H   0  0  0  0  0  0  0  0  0  0  0  0
   23.9878    0.4925    9.8249 H   0  0  0  0  0  0  0  0  0  0  0  0
   28.0148    6.9230   10.8847 C   0  0  0  0  0  0  0  0  0  0  0  0
   28.8309    6.5913   11.7461 O   0  0  0  0  0  0  0  0  0  0  0  0
   27.9681    8.2173   10.0739 C   0  0  0  0  0  0  0  0  0  0  0  0
   29.5582    8.4350    9.1059 S   0  0  0  0  0  0  0  0  0  0  0  0
   32.3805    9.9443   11.4440 C   0  0  0  0  0  0  0  0  0  0  0  0
   30.3989    9.4637   10.2732 C   0  0  0  0  0  0  0  0  0  0  0  0
   29.8230   10.5903   10.8076 N   0  0  0  0  0  0  0  0  0  0  0  0
   30.5228   11.4052   11.6335 C   0  0  0  0  0  0  0  0  0  0  0  0
   31.8182   11.1038   11.9829 C   0  0  0  0  0  0  0  0  0  0  0  0
   31.6806    9.1194   10.6163 N   0  0  0  0  0  0  0  0  0  0  0  0
 17 19  1  0  0  0
 17 16  1  0  0  0
 20 19  2  0  0  0
 20 21  1  0  0  0
 19 23  1  0  0  0
 16 14  1  0  0  0
 15 14  2  0  0  0
 21 22  2  0  0  0
 14  1  1  0  0  0
  5  1  2  0  0  0
  5  6  1  0  0  0
  1  4  1  0  0  0
 23 18  2  0  0  0
 22 18  1  0  0  0
  6  7  2  0  0  0
  4  2  2  0  0  0
  7  2  1  0  0  0
  7  9  1  0  0  0
  2  3  1  0  0  0
 10  9  1  0  0  0
 11  9  2  0  0  0
  9  8  2  0  0  0
 10 12  1  0  0  0
 10 13  1  0  0  0
M  END
> <minimizedAffinity>
-7.03004

$$$$
4KP5_E1F_A_302


 23 24  0  0  0  0  0  0  0  0999 V2000
   24.5162    6.9848   13.8156 C   0  0  0  0  0  0  0  0  0  0  0  0
   24.8983    9.2463   12.9398 C   0  0  0  0  0  0  0  0  0  0  0  0
   25.3608   10.2014   11.6764 Cl  0  0  0  0  0  0  0  0  0  0  0  0
   24.9612    7.8116   12.8103 C   0  0  0  0  0  0  0  0  0  0  0  0
   24.1257    7.5208   15.0430 C   0  0  0  0  0  0  0  0  0  0  0  0
   23.9898    8.9520   15.2227 C   0  0  0  0  0  0  0  0  0  0  0  0
   24.4654    9.7529   14.1752 C   0  0  0  0  0  0  0  0  0  0  0  0
   25.5128   12.2033   14.2766 O   0  0  0  0  0  0  0  0  0  0  0  0
   24.1570   11.5271   14.4221 S   0  0  0  0  0  0  0  0  0  0  0  0
   23.5614   11.7397   15.8572 N   0  0  0  0  0  0  0  0  0  0  0  0
   23.1209   11.8942   13.3496 O   0  0  0  0  0  0  0  0  0  0  0  0
   22.6553   11.2756   15.9214 H   0  0  0  0  0  0  0  0  0  0  0  0
   23.4453   12.7378   16.0327 H   0  0  0  0  0  0  0  0  0  0  0  0
   24.6308    5.5225   13.5188 C   0  0  0  0  0  0  0  0  0  0  0  0
   24.3934    4.8133   14.4979 O   0  0  0  0  0  0  0  0  0  0  0  0
   25.0397    5.0874   12.1122 C   0  0  0  0  0  0  0  0  0  0  0  0
   23.7191    3.9890   11.3624 S   0  0  0  0  0  0  0  0  0  0  0  0
   24.3689    2.8473    7.6228 C   0  0  0  0  0  0  0  0  0  0  0  0
   24.5124    3.7044    9.8076 C   0  0  0  0  0  0  0  0  0  0  0  0
   25.7672    4.1856    9.5246 N   0  0  0  0  0  0  0  0  0  0  0  0
   26.3137    4.0249    8.2952 C   0  0  0  0  0  0  0  0  0  0  0  0
   25.6360    3.3452    7.3105 C   0  0  0  0  0  0  0  0  0  0  0  0
   23.8161    3.0026    8.8580 N   0  0  0  0  0  0  0  0  0  0  0  0
 17 19  1  0  0  0
 17 16  1  0  0  0
 20 19  2  0  0  0
 20 21  1  0  0  0
 19 23  1  0  0  0
 16 14  1  0  0  0
 15 14  2  0  0  0
 21 22  2  0  0  0
 14  1  1  0  0  0
  5  1  2  0  0  0
  5  6  1  0  0  0
  1  4  1  0  0  0
 23 18  2  0  0  0
 22 18  1  0  0  0
  6  7  2  0  0  0
  4  2  2  0  0  0
  7  2  1  0  0  0
  7  9  1  0  0  0
  2  3  1  0  0  0
 10  9  1  0  0  0
 11  9  2  0  0  0
  9  8  2  0  0  0
 10 12  1  0  0  0
 10 13  1  0  0  0
M  END
> <minimizedAffinity>
-6.88598

$$$$
4KP5_E1F_A_302


 23 24  0  0  0  0  0  0  0  0999 V2000
   24.9794    7.3950   13.7293 C   0  0  0  0  0  0  0  0  0  0  0  0
   25.0661    9.6476   12.7572 C   0  0  0  0  0  0  0  0  0  0  0  0
   25.4343   10.6038   11.4640 Cl  0  0  0  0  0  0  0  0  0  0  0  0
   25.3390    8.2330   12.6995 C   0  0  0  0  0  0  0  0  0  0  0  0
   24.4698    7.9215   14.9165 C   0  0  0  0  0  0  0  0  0  0  0  0
   24.1234    9.3243   15.0223 C   0  0  0  0  0  0  0  0  0  0  0  0
   24.5185   10.1394   13.9524 C   0  0  0  0  0  0  0  0  0  0  0  0
   23.3422   11.9699   15.4943 O   0  0  0  0  0  0  0  0  0  0  0  0
   23.9498   11.8592   14.1032 S   0  0  0  0  0  0  0  0  0  0  0  0
   22.8826   12.1362   12.9878 N   0  0  0  0  0  0  0  0  0  0  0  0
   25.2083   12.7067   13.8661 O   0  0  0  0  0  0  0  0  0  0  0  0
   23.3207   12.0543   12.0703 H   0  0  0  0  0  0  0  0  0  0  0  0
   22.5073   13.0776   13.1027 H   0  0  0  0  0  0  0  0  0  0  0  0
   25.3137    5.9532   13.5076 C   0  0  0  0  0  0  0  0  0  0  0  0
   25.8916    5.4407   14.4675 O   0  0  0  0  0  0  0  0  0  0  0  0
   24.9490    5.3110   12.1698 C   0  0  0  0  0  0  0  0  0  0  0  0
   26.4997    4.9222   11.1918 S   0  0  0  0  0  0  0  0  0  0  0  0
   25.8062    3.5526    7.5375 C   0  0  0  0  0  0  0  0  0  0  0  0
   25.7121    4.1488    9.8100 C   0  0  0  0  0  0  0  0  0  0  0  0
   24.5230    3.4716    9.9270 N   0  0  0  0  0  0  0  0  0  0  0  0
   23.9875    2.8166    8.8687 C   0  0  0  0  0  0  0  0  0  0  0  0
   24.6073    2.8434    7.6415 C   0  0  0  0  0  0  0  0  0  0  0  0
   26.3472    4.2160    8.5971 N   0  0  0  0  0  0  0  0  0  0  0  0
 17 19  1  0  0  0
 17 16  1  0  0  0
 20 19  2  0  0  0
 20 21  1  0  0  0
 19 23  1  0  0  0
 16 14  1  0  0  0
 15 14  2  0  0  0
 21 22  2  0  0  0
 14  1  1  0  0  0
  5  1  2  0  0  0
  5  6  1  0  0  0
  1  4  1  0  0  0
 23 18  2  0  0  0
 22 18  1  0  0  0
  6  7  2  0  0  0
  4  2  2  0  0  0
  7  2  1  0  0  0
  7  9  1  0  0  0
  2  3  1  0  0  0
 10  9  1  0  0  0
 11  9  2  0  0  0
  9  8  2  0  0  0
 10 12  1  0  0  0
 10 13  1  0  0  0
M  END
> <minimizedAffinity>
-6.87100

$$$$
4KP5_E1F_A_302


 23 24  0  0  0  0  0  0  0  0999 V2000
   26.6075    5.8806   10.9333 C   0  0  0  0  0  0  0  0  0  0  0  0
   26.0736    4.3184    9.1163 C   0  0  0  0  0  0  0  0  0  0  0  0
   26.4763    3.6864    7.6464 Cl  0  0  0  0  0  0  0  0  0  0  0  0
   26.8705    5.3798    9.6795 C   0  0  0  0  0  0  0  0  0  0  0  0
   25.4712    5.4673   11.6292 C   0  0  0  0  0  0  0  0  0  0  0  0
   24.6581    4.3700   11.1455 C   0  0  0  0  0  0  0  0  0  0  0  0
   24.9587    3.9001    9.8595 C   0  0  0  0  0  0  0  0  0  0  0  0
   23.5541    2.7110    7.9294 O   0  0  0  0  0  0  0  0  0  0  0  0
   23.9753    2.4522    9.3689 S   0  0  0  0  0  0  0  0  0  0  0  0
   22.7324    2.3423   10.3190 N   0  0  0  0  0  0  0  0  0  0  0  0
   24.9165    1.2561    9.5735 O   0  0  0  0  0  0  0  0  0  0  0  0
   23.0482    2.1693   11.2733 H   0  0  0  0  0  0  0  0  0  0  0  0
   22.1375    1.5724   10.0129 H   0  0  0  0  0  0  0  0  0  0  0  0
   27.5374    6.9643   11.3812 C   0  0  0  0  0  0  0  0  0  0  0  0
   28.6574    6.5447   11.6767 O   0  0  0  0  0  0  0  0  0  0  0  0
   27.0157    8.3988   11.4507 C   0  0  0  0  0  0  0  0  0  0  0  0
   26.4112    8.7871   13.1817 S   0  0  0  0  0  0  0  0  0  0  0  0
   23.8340   11.7933   13.3572 C   0  0  0  0  0  0  0  0  0  0  0  0
   25.5375   10.2745   12.7919 C   0  0  0  0  0  0  0  0  0  0  0  0
   25.9158   11.0996   11.7611 N   0  0  0  0  0  0  0  0  0  0  0  0
   25.2793   12.2752   11.5407 C   0  0  0  0  0  0  0  0  0  0  0  0
   24.2156   12.6540   12.3255 C   0  0  0  0  0  0  0  0  0  0  0  0
   24.4677   10.6085   13.5811 N   0  0  0  0  0  0  0  0  0  0  0  0
 17 19  1  0  0  0
 17 16  1  0  0  0
 20 19  2  0  0  0
 20 21  1  0  0  0
 19 23  1  0  0  0
 16 14  1  0  0  0
 15 14  2  0  0  0
 21 22  2  0  0  0
 14  1  1  0  0  0
  5  1  2  0  0  0
  5  6  1  0  0  0
  1  4  1  0  0  0
 23 18  2  0  0  0
 22 18  1  0  0  0
  6  7  2  0  0  0
  4  2  2  0  0  0
  7  2  1  0  0  0
  7  9  1  0  0  0
  2  3  1  0  0  0
 10  9  1  0  0  0
 11  9  2  0  0  0
  9  8  2  0  0  0
 10 12  1  0  0  0
 10 13  1  0  0  0
M  END
> <minimizedAffinity>
-6.86527

$$$$
4KP5_E1F_A_302


 23 24  0  0  0  0  0  0  0  0999 V2000
   27.4891    5.8225   10.4085 C   0  0  0  0  0  0  0  0  0  0  0  0
   25.4210    4.7841   11.2281 C   0  0  0  0  0  0  0  0  0  0  0  0
   24.3393    4.5945   12.4594 Cl  0  0  0  0  0  0  0  0  0  0  0  0
   26.6031    5.5837   11.4332 C   0  0  0  0  0  0  0  0  0  0  0  0
   27.3344    5.1747    9.1826 C   0  0  0  0  0  0  0  0  0  0  0  0
   26.1446    4.4006    8.8928 C   0  0  0  0  0  0  0  0  0  0  0  0
   25.2770    4.1766    9.9709 C   0  0  0  0  0  0  0  0  0  0  0  0
   22.6146    4.2515    9.8356 O   0  0  0  0  0  0  0  0  0  0  0  0
   23.7548    3.2987    9.5057 S   0  0  0  0  0  0  0  0  0  0  0  0
   23.6591    1.9775   10.3451 N   0  0  0  0  0  0  0  0  0  0  0  0
   23.9322    2.9772    8.0145 O   0  0  0  0  0  0  0  0  0  0  0  0
   24.4354    1.3625   10.1010 H   0  0  0  0  0  0  0  0  0  0  0  0
   22.7766    1.5084   10.1413 H   0  0  0  0  0  0  0  0  0  0  0  0
   28.6536    6.6870   10.7777 C   0  0  0  0  0  0  0  0  0  0  0  0
   29.4172    6.1476   11.5802 O   0  0  0  0  0  0  0  0  0  0  0  0
   28.7501    8.0877   10.1746 C   0  0  0  0  0  0  0  0  0  0  0  0
   27.0494    8.8684   10.0701 S   0  0  0  0  0  0  0  0  0  0  0  0
   26.9865   12.6299    8.8223 C   0  0  0  0  0  0  0  0  0  0  0  0
   27.5716   10.4974    9.6215 C   0  0  0  0  0  0  0  0  0  0  0  0
   28.8589   10.9353    9.8150 N   0  0  0  0  0  0  0  0  0  0  0  0
   29.2076   12.2156    9.5409 C   0  0  0  0  0  0  0  0  0  0  0  0
   28.2859   13.0987    9.0295 C   0  0  0  0  0  0  0  0  0  0  0  0
   26.6312   11.3430    9.0926 N   0  0  0  0  0  0  0  0  0  0  0  0
 17 19  1  0  0  0
 17 16  1  0  0  0
 20 19  2  0  0  0
 20 21  1  0  0  0
 19 23  1  0  0  0
 16 14  1  0  0  0
 15 14  2  0  0  0
 21 22  2  0  0  0
 14  1  1  0  0  0
  5  1  2  0  0  0
  5  6  1  0  0  0
  1  4  1  0  0  0
 23 18  2  0  0  0
 22 18  1  0  0  0
  6  7  2  0  0  0
  4  2  2  0  0  0
  7  2  1  0  0  0
  7  9  1  0  0  0
  2  3  1  0  0  0
 10  9  1  0  0  0
 11  9  2  0  0  0
  9  8  2  0  0  0
 10 12  1  0  0  0
 10 13  1  0  0  0
M  END
> <minimizedAffinity>
-6.60723

$$$$
