3D83_GK6_A_401


 37 41  0  0  0  0  0  0  0  0999 V2000
   41.0968   31.3171   32.1751 C   0  0  0  0  0  0  0  0  0  0  0  0
   39.8994   31.7010   31.5471 C   0  0  0  0  0  0  0  0  0  0  0  0
   39.9126   32.7399   30.4500 C   0  0  0  0  0  0  0  0  0  0  0  0
   41.0291   30.3395   33.1829 C   0  0  0  0  0  0  0  0  0  0  0  0
   39.7891   29.7891   33.5903 C   0  0  0  0  0  0  0  0  0  0  0  0
   38.6046   30.1991   32.9665 C   0  0  0  0  0  0  0  0  0  0  0  0
   38.6653   31.1566   31.9352 C   0  0  0  0  0  0  0  0  0  0  0  0
   44.7686   33.0195   30.8801 C   0  0  0  0  0  0  0  0  0  0  0  0
   44.0537   33.5898   31.9335 C   0  0  0  0  0  0  0  0  0  0  0  0
   42.8206   33.0447   32.3557 C   0  0  0  0  0  0  0  0  0  0  0  0
   44.2483   31.8861   30.2486 C   0  0  0  0  0  0  0  0  0  0  0  0
   43.0186   31.3414   30.6706 C   0  0  0  0  0  0  0  0  0  0  0  0
   42.2916   31.9240   31.7189 C   0  0  0  0  0  0  0  0  0  0  0  0
   46.4839   34.7067   30.8988 O   0  0  0  0  0  0  0  0  0  0  0  0
   46.1032   33.6267   30.4298 C   0  0  0  0  0  0  0  0  0  0  0  0
   46.8210   32.9828   29.4879 N   0  0  0  0  0  0  0  0  0  0  0  0
   46.4863   32.1185   29.1559 H   0  0  0  0  0  0  0  0  0  0  0  0
   48.0716   33.5015   28.9333 C   0  0  0  0  0  0  0  0  0  0  0  0
   49.1106   32.3918   28.7191 C   0  0  0  0  0  0  0  0  0  0  0  0
   49.9663   32.2666   29.9812 C   0  0  0  0  0  0  0  0  0  0  0  0
   48.8930   31.2252   29.6834 C   0  0  0  0  0  0  0  0  0  0  0  0
   39.7094   28.8613   34.5906 N   0  0  0  0  0  0  0  0  0  0  0  0
   40.1871   29.0099   35.8527 C   0  0  0  0  0  0  0  0  0  0  0  0
   40.9212   29.9247   36.2131 O   0  0  0  0  0  0  0  0  0  0  0  0
   39.2658   28.0088   34.3768 H   0  0  0  0  0  0  0  0  0  0  0  0
   39.8560   27.9688   36.9164 C   0  0  0  0  0  0  0  0  0  0  0  0
   40.1071   28.2516   38.2783 C   0  0  0  0  0  0  0  0  0  0  0  0
   39.8207   27.2686   39.2494 C   0  0  0  0  0  0  0  0  0  0  0  0
   39.3389   26.0673   38.8433 N   0  0  0  0  0  0  0  0  0  0  0  0
   39.0999   25.7700   37.5445 C   0  0  0  0  0  0  0  0  0  0  0  0
   39.3597   26.7097   36.5404 C   0  0  0  0  0  0  0  0  0  0  0  0
   40.0889   27.5167   40.6183 N   0  0  0  0  0  0  0  0  0  0  0  0
   39.6363   26.5248   41.5939 C   0  0  0  0  0  0  0  0  0  0  0  0
   39.5425   27.1444   42.9895 C   0  0  0  0  0  0  0  0  0  0  0  0
   40.6997   27.9324   43.2562 O   0  0  0  0  0  0  0  0  0  0  0  0
   40.6677   29.0831   42.4147 C   0  0  0  0  0  0  0  0  0  0  0  0
   40.9385   28.6762   40.9640 C   0  0  0  0  0  0  0  0  0  0  0  0
 14 15  2  0  0  0
 15 16  1  0  0  0
 15  8  1  0  0  0
 16 18  1  0  0  0
 18 19  1  0  0  0
 19 20  1  0  0  0
 19 21  1  0  0  0
 20 21  1  0  0  0
  8  9  2  0  0  0
  8 11  1  0  0  0
  9 10  1  0  0  0
 10 13  2  0  0  0
 11 12  2  0  0  0
 12 13  1  0  0  0
 13  1  1  0  0  0
  1  2  2  0  0  0
  1  4  1  0  0  0
  2  3  1  0  0  0
  2  7  1  0  0  0
  4  5  2  0  0  0
  5  6  1  0  0  0
  5 22  1  0  0  0
  6  7  2  0  0  0
 22 23  1  0  0  0
 23 24  2  0  0  0
 23 26  1  0  0  0
 26 27  2  0  0  0
 26 31  1  0  0  0
 27 28  1  0  0  0
 28 29  2  0  0  0
 28 32  1  0  0  0
 29 30  1  0  0  0
 30 31  2  0  0  0
 32 33  1  0  0  0
 32 37  1  0  0  0
 33 34  1  0  0  0
 34 35  1  0  0  0
 35 36  1  0  0  0
 36 37  1  0  0  0
 16 17  1  0  0  0
 22 25  1  0  0  0
M  END
> <minimizedAffinity>
-12.06948

$$$$
3D83_GK6_A_401


 37 41  0  0  0  0  0  0  0  0999 V2000
   41.2426   31.1774   32.2496 C   0  0  0  0  0  0  0  0  0  0  0  0
   40.0685   31.6274   31.6214 C   0  0  0  0  0  0  0  0  0  0  0  0
   40.1327   32.7134   30.5728 C   0  0  0  0  0  0  0  0  0  0  0  0
   41.1274   30.1584   33.2109 C   0  0  0  0  0  0  0  0  0  0  0  0
   39.8640   29.6304   33.5740 C   0  0  0  0  0  0  0  0  0  0  0  0
   38.7036   30.1058   32.9515 C   0  0  0  0  0  0  0  0  0  0  0  0
   38.8115   31.1061   31.9655 C   0  0  0  0  0  0  0  0  0  0  0  0
   44.8211   33.0628   30.9471 C   0  0  0  0  0  0  0  0  0  0  0  0
   44.3464   31.9191   30.3047 C   0  0  0  0  0  0  0  0  0  0  0  0
   43.1704   31.2719   30.7453 C   0  0  0  0  0  0  0  0  0  0  0  0
   44.1061   33.5695   32.0361 C   0  0  0  0  0  0  0  0  0  0  0  0
   42.9320   32.9245   32.4750 C   0  0  0  0  0  0  0  0  0  0  0  0
   42.4633   31.7654   31.8396 C   0  0  0  0  0  0  0  0  0  0  0  0
   46.4436   34.8395   30.9389 O   0  0  0  0  0  0  0  0  0  0  0  0
   46.1028   33.7505   30.4602 C   0  0  0  0  0  0  0  0  0  0  0  0
   46.8163   33.1660   29.4771 N   0  0  0  0  0  0  0  0  0  0  0  0
   46.5153   32.2919   29.1385 H   0  0  0  0  0  0  0  0  0  0  0  0
   48.0147   33.7629   28.8872 C   0  0  0  0  0  0  0  0  0  0  0  0
   49.2990   33.2685   29.5676 C   0  0  0  0  0  0  0  0  0  0  0  0
   50.5025   33.9168   28.8804 C   0  0  0  0  0  0  0  0  0  0  0  0
   50.0496   34.4132   30.2492 C   0  0  0  0  0  0  0  0  0  0  0  0
   39.7385   28.6618   34.5299 N   0  0  0  0  0  0  0  0  0  0  0  0
   40.1232   28.7707   35.8273 C   0  0  0  0  0  0  0  0  0  0  0  0
   40.8069   29.6867   36.2734 O   0  0  0  0  0  0  0  0  0  0  0  0
   39.3327   27.8087   34.2529 H   0  0  0  0  0  0  0  0  0  0  0  0
   39.7454   27.6806   36.8243 C   0  0  0  0  0  0  0  0  0  0  0  0
   39.0933   26.5108   36.3726 C   0  0  0  0  0  0  0  0  0  0  0  0
   38.7255   25.5222   37.3101 C   0  0  0  0  0  0  0  0  0  0  0  0
   38.9832   25.7376   38.6244 N   0  0  0  0  0  0  0  0  0  0  0  0
   39.5973   26.8540   39.0817 C   0  0  0  0  0  0  0  0  0  0  0  0
   39.9894   27.8638   38.1954 C   0  0  0  0  0  0  0  0  0  0  0  0
   38.0463   24.3531   36.8869 N   0  0  0  0  0  0  0  0  0  0  0  0
   36.8576   23.9446   37.6356 C   0  0  0  0  0  0  0  0  0  0  0  0
   36.5517   22.4649   37.3967 C   0  0  0  0  0  0  0  0  0  0  0  0
   36.6627   22.1576   36.0095 O   0  0  0  0  0  0  0  0  0  0  0  0
   38.0359   22.2440   35.6350 C   0  0  0  0  0  0  0  0  0  0  0  0
   38.4845   23.7076   35.6310 C   0  0  0  0  0  0  0  0  0  0  0  0
 14 15  2  0  0  0
 15 16  1  0  0  0
 15  8  1  0  0  0
 16 18  1  0  0  0
 18 19  1  0  0  0
 19 20  1  0  0  0
 19 21  1  0  0  0
 20 21  1  0  0  0
  8  9  2  0  0  0
  8 11  1  0  0  0
  9 10  1  0  0  0
 10 13  2  0  0  0
 11 12  2  0  0  0
 12 13  1  0  0  0
 13  1  1  0  0  0
  1  2  2  0  0  0
  1  4  1  0  0  0
  2  3  1  0  0  0
  2  7  1  0  0  0
  4  5  2  0  0  0
  5  6  1  0  0  0
  5 22  1  0  0  0
  6  7  2  0  0  0
 22 23  1  0  0  0
 23 24  2  0  0  0
 23 26  1  0  0  0
 26 27  2  0  0  0
 26 31  1  0  0  0
 27 28  1  0  0  0
 28 29  2  0  0  0
 28 32  1  0  0  0
 29 30  1  0  0  0
 30 31  2  0  0  0
 32 33  1  0  0  0
 32 37  1  0  0  0
 33 34  1  0  0  0
 34 35  1  0  0  0
 35 36  1  0  0  0
 36 37  1  0  0  0
 16 17  1  0  0  0
 22 25  1  0  0  0
M  END
> <minimizedAffinity>
-11.49081

$$$$
3D83_GK6_A_401


 37 41  0  0  0  0  0  0  0  0999 V2000
   41.7805   30.1978   31.7724 C   0  0  0  0  0  0  0  0  0  0  0  0
   40.7416   31.0472   31.3544 C   0  0  0  0  0  0  0  0  0  0  0  0
   40.9477   31.9886   30.1906 C   0  0  0  0  0  0  0  0  0  0  0  0
   41.5322   29.3350   32.8540 C   0  0  0  0  0  0  0  0  0  0  0  0
   40.2908   29.3504   33.5361 C   0  0  0  0  0  0  0  0  0  0  0  0
   39.2750   30.2182   33.1176 C   0  0  0  0  0  0  0  0  0  0  0  0
   39.5038   31.0657   32.0160 C   0  0  0  0  0  0  0  0  0  0  0  0
   45.5040   30.3122   29.7281 C   0  0  0  0  0  0  0  0  0  0  0  0
   44.8893   31.4909   30.1509 C   0  0  0  0  0  0  0  0  0  0  0  0
   43.6402   31.4644   30.8104 C   0  0  0  0  0  0  0  0  0  0  0  0
   44.8662   29.0934   29.9764 C   0  0  0  0  0  0  0  0  0  0  0  0
   43.6205   29.0667   30.6356 C   0  0  0  0  0  0  0  0  0  0  0  0
   42.9945   30.2526   31.0464 C   0  0  0  0  0  0  0  0  0  0  0  0
   47.1532   31.3313   28.3029 O   0  0  0  0  0  0  0  0  0  0  0  0
   46.8576   30.3583   29.0080 C   0  0  0  0  0  0  0  0  0  0  0  0
   47.6886   29.3035   29.1262 N   0  0  0  0  0  0  0  0  0  0  0  0
   47.4177   28.5592   29.7110 H   0  0  0  0  0  0  0  0  0  0  0  0
   48.9721   29.2071   28.4307 C   0  0  0  0  0  0  0  0  0  0  0  0
   49.2075   27.8066   27.8476 C   0  0  0  0  0  0  0  0  0  0  0  0
   50.3813   27.8707   26.8683 C   0  0  0  0  0  0  0  0  0  0  0  0
   50.5755   27.2539   28.2493 C   0  0  0  0  0  0  0  0  0  0  0  0
   40.0507   28.5380   34.6085 N   0  0  0  0  0  0  0  0  0  0  0  0
   40.3389   28.8250   35.9037 C   0  0  0  0  0  0  0  0  0  0  0  0
   41.0250   29.7751   36.2674 O   0  0  0  0  0  0  0  0  0  0  0  0
   39.6312   27.6664   34.4253 H   0  0  0  0  0  0  0  0  0  0  0  0
   39.8391   27.9064   37.0134 C   0  0  0  0  0  0  0  0  0  0  0  0
   40.1609   28.1917   38.3598 C   0  0  0  0  0  0  0  0  0  0  0  0
   39.7143   27.3182   39.3741 C   0  0  0  0  0  0  0  0  0  0  0  0
   39.0122   26.2117   39.0235 N   0  0  0  0  0  0  0  0  0  0  0  0
   38.7008   25.9123   37.7406 C   0  0  0  0  0  0  0  0  0  0  0  0
   39.1127   26.7470   36.6954 C   0  0  0  0  0  0  0  0  0  0  0  0
   40.0465   27.5666   40.7288 N   0  0  0  0  0  0  0  0  0  0  0  0
   39.6384   26.5760   41.7252 C   0  0  0  0  0  0  0  0  0  0  0  0
   39.6109   27.1965   43.1232 C   0  0  0  0  0  0  0  0  0  0  0  0
   40.7806   27.9828   43.3350 O   0  0  0  0  0  0  0  0  0  0  0  0
   40.7113   29.1330   42.4952 C   0  0  0  0  0  0  0  0  0  0  0  0
   40.9133   28.7248   41.0337 C   0  0  0  0  0  0  0  0  0  0  0  0
 14 15  2  0  0  0
 15 16  1  0  0  0
 15  8  1  0  0  0
 16 18  1  0  0  0
 18 19  1  0  0  0
 19 20  1  0  0  0
 19 21  1  0  0  0
 20 21  1  0  0  0
  8  9  2  0  0  0
  8 11  1  0  0  0
  9 10  1  0  0  0
 10 13  2  0  0  0
 11 12  2  0  0  0
 12 13  1  0  0  0
 13  1  1  0  0  0
  1  2  2  0  0  0
  1  4  1  0  0  0
  2  3  1  0  0  0
  2  7  1  0  0  0
  4  5  2  0  0  0
  5  6  1  0  0  0
  5 22  1  0  0  0
  6  7  2  0  0  0
 22 23  1  0  0  0
 23 24  2  0  0  0
 23 26  1  0  0  0
 26 27  2  0  0  0
 26 31  1  0  0  0
 27 28  1  0  0  0
 28 29  2  0  0  0
 28 32  1  0  0  0
 29 30  1  0  0  0
 30 31  2  0  0  0
 32 33  1  0  0  0
 32 37  1  0  0  0
 33 34  1  0  0  0
 34 35  1  0  0  0
 35 36  1  0  0  0
 36 37  1  0  0  0
 16 17  1  0  0  0
 22 25  1  0  0  0
M  END
> <minimizedAffinity>
-11.24211

$$$$
3D83_GK6_A_401


 37 41  0  0  0  0  0  0  0  0999 V2000
   41.3483   30.5253   32.6189 C   0  0  0  0  0  0  0  0  0  0  0  0
   40.1163   30.9685   32.1080 C   0  0  0  0  0  0  0  0  0  0  0  0
   40.0274   31.5231   30.7052 C   0  0  0  0  0  0  0  0  0  0  0  0
   41.3730   30.0095   33.9263 C   0  0  0  0  0  0  0  0  0  0  0  0
   40.2042   29.9788   34.7261 C   0  0  0  0  0  0  0  0  0  0  0  0
   38.9902   30.4437   34.2064 C   0  0  0  0  0  0  0  0  0  0  0  0
   38.9491   30.9351   32.8870 C   0  0  0  0  0  0  0  0  0  0  0  0
   44.8135   30.7000   30.1656 C   0  0  0  0  0  0  0  0  0  0  0  0
   44.2599   31.8650   30.6969 C   0  0  0  0  0  0  0  0  0  0  0  0
   43.0945   31.8192   31.4942 C   0  0  0  0  0  0  0  0  0  0  0  0
   44.1996   29.4752   30.4431 C   0  0  0  0  0  0  0  0  0  0  0  0
   43.0376   29.4293   31.2398 C   0  0  0  0  0  0  0  0  0  0  0  0
   42.4714   30.6019   31.7606 C   0  0  0  0  0  0  0  0  0  0  0  0
   46.4059   29.7959   28.6048 O   0  0  0  0  0  0  0  0  0  0  0  0
   46.0758   30.7672   29.2969 C   0  0  0  0  0  0  0  0  0  0  0  0
   46.8318   31.8824   29.3406 N   0  0  0  0  0  0  0  0  0  0  0  0
   46.5207   32.6356   29.8931 H   0  0  0  0  0  0  0  0  0  0  0  0
   48.0904   32.0318   28.6098 C   0  0  0  0  0  0  0  0  0  0  0  0
   49.0197   33.0615   29.2677 C   0  0  0  0  0  0  0  0  0  0  0  0
   49.5587   34.0012   28.1873 C   0  0  0  0  0  0  0  0  0  0  0  0
   48.4667   34.4811   29.1372 C   0  0  0  0  0  0  0  0  0  0  0  0
   40.2244   29.5084   36.0091 N   0  0  0  0  0  0  0  0  0  0  0  0
   39.6441   28.3609   36.4444 C   0  0  0  0  0  0  0  0  0  0  0  0
   38.8632   27.6843   35.7826 O   0  0  0  0  0  0  0  0  0  0  0  0
   40.7027   30.0503   36.6776 H   0  0  0  0  0  0  0  0  0  0  0  0
   39.9124   27.8655   37.8613 C   0  0  0  0  0  0  0  0  0  0  0  0
   39.7021   26.5050   38.1815 C   0  0  0  0  0  0  0  0  0  0  0  0
   39.9288   26.0660   39.5033 C   0  0  0  0  0  0  0  0  0  0  0  0
   40.3147   26.9711   40.4371 N   0  0  0  0  0  0  0  0  0  0  0  0
   40.5126   28.2806   40.1566 C   0  0  0  0  0  0  0  0  0  0  0  0
   40.3088   28.7691   38.8610 C   0  0  0  0  0  0  0  0  0  0  0  0
   39.6991   24.7133   39.8566 N   0  0  0  0  0  0  0  0  0  0  0  0
   39.0349   23.8543   38.8760 C   0  0  0  0  0  0  0  0  0  0  0  0
   38.4239   22.6290   39.5583 C   0  0  0  0  0  0  0  0  0  0  0  0
   39.3501   22.0702   40.4862 O   0  0  0  0  0  0  0  0  0  0  0  0
   39.5009   22.9763   41.5768 C   0  0  0  0  0  0  0  0  0  0  0  0
   40.2776   24.2148   41.1225 C   0  0  0  0  0  0  0  0  0  0  0  0
 14 15  2  0  0  0
 15 16  1  0  0  0
 15  8  1  0  0  0
 16 18  1  0  0  0
 18 19  1  0  0  0
 19 20  1  0  0  0
 19 21  1  0  0  0
 20 21  1  0  0  0
  8  9  2  0  0  0
  8 11  1  0  0  0
  9 10  1  0  0  0
 10 13  2  0  0  0
 11 12  2  0  0  0
 12 13  1  0  0  0
 13  1  1  0  0  0
  1  2  2  0  0  0
  1  4  1  0  0  0
  2  3  1  0  0  0
  2  7  1  0  0  0
  4  5  2  0  0  0
  5  6  1  0  0  0
  5 22  1  0  0  0
  6  7  2  0  0  0
 22 23  1  0  0  0
 23 24  2  0  0  0
 23 26  1  0  0  0
 26 27  2  0  0  0
 26 31  1  0  0  0
 27 28  1  0  0  0
 28 29  2  0  0  0
 28 32  1  0  0  0
 29 30  1  0  0  0
 30 31  2  0  0  0
 32 33  1  0  0  0
 32 37  1  0  0  0
 33 34  1  0  0  0
 34 35  1  0  0  0
 35 36  1  0  0  0
 36 37  1  0  0  0
 16 17  1  0  0  0
 22 25  1  0  0  0
M  END
> <minimizedAffinity>
-10.77842

$$$$
3D83_GK6_A_401


 37 41  0  0  0  0  0  0  0  0999 V2000
   40.8072   30.2316   33.0575 C   0  0  0  0  0  0  0  0  0  0  0  0
   39.7004   30.8489   32.4497 C   0  0  0  0  0  0  0  0  0  0  0  0
   38.3580   30.8613   33.1431 C   0  0  0  0  0  0  0  0  0  0  0  0
   42.0348   30.2572   32.3733 C   0  0  0  0  0  0  0  0  0  0  0  0
   42.1480   30.8441   31.0890 C   0  0  0  0  0  0  0  0  0  0  0  0
   41.0292   31.4363   30.4910 C   0  0  0  0  0  0  0  0  0  0  0  0
   39.8014   31.4418   31.1815 C   0  0  0  0  0  0  0  0  0  0  0  0
   40.0472   28.5312   36.8769 C   0  0  0  0  0  0  0  0  0  0  0  0
   40.5808   29.8152   36.7645 C   0  0  0  0  0  0  0  0  0  0  0  0
   40.8587   30.3797   35.4995 C   0  0  0  0  0  0  0  0  0  0  0  0
   39.7801   27.8082   35.7107 C   0  0  0  0  0  0  0  0  0  0  0  0
   40.0561   28.3720   34.4486 C   0  0  0  0  0  0  0  0  0  0  0  0
   40.6078   29.6564   34.3355 C   0  0  0  0  0  0  0  0  0  0  0  0
   39.8283   26.7068   38.4303 O   0  0  0  0  0  0  0  0  0  0  0  0
   39.7565   27.9301   38.2578 C   0  0  0  0  0  0  0  0  0  0  0  0
   39.3819   28.7551   39.2558 N   0  0  0  0  0  0  0  0  0  0  0  0
   39.3546   29.7227   39.0760 H   0  0  0  0  0  0  0  0  0  0  0  0
   39.0139   28.2876   40.5924 C   0  0  0  0  0  0  0  0  0  0  0  0
   39.7609   29.0505   41.6955 C   0  0  0  0  0  0  0  0  0  0  0  0
   40.3739   28.0395   42.6665 C   0  0  0  0  0  0  0  0  0  0  0  0
   41.2622   28.7622   41.6596 C   0  0  0  0  0  0  0  0  0  0  0  0
   43.3295   30.8463   30.4022 N   0  0  0  0  0  0  0  0  0  0  0  0
   44.2741   31.8204   30.4483 C   0  0  0  0  0  0  0  0  0  0  0  0
   44.1117   32.9198   30.9685 O   0  0  0  0  0  0  0  0  0  0  0  0
   43.5121   30.0721   29.8221 H   0  0  0  0  0  0  0  0  0  0  0  0
   45.6264   31.5976   29.7800 C   0  0  0  0  0  0  0  0  0  0  0  0
   46.5386   32.6712   29.6652 C   0  0  0  0  0  0  0  0  0  0  0  0
   47.7755   32.4574   29.0205 C   0  0  0  0  0  0  0  0  0  0  0  0
   48.0412   31.2320   28.5028 N   0  0  0  0  0  0  0  0  0  0  0  0
   47.1794   30.1918   28.5915 C   0  0  0  0  0  0  0  0  0  0  0  0
   45.9414   30.3460   29.2258 C   0  0  0  0  0  0  0  0  0  0  0  0
   48.6959   33.5237   28.8680 N   0  0  0  0  0  0  0  0  0  0  0  0
   48.4341   34.7624   29.6013 C   0  0  0  0  0  0  0  0  0  0  0  0
   49.1876   35.9336   28.9682 C   0  0  0  0  0  0  0  0  0  0  0  0
   50.5271   35.5511   28.6671 O   0  0  0  0  0  0  0  0  0  0  0  0
   50.4988   34.6026   27.6028 C   0  0  0  0  0  0  0  0  0  0  0  0
   49.9372   33.2704   28.1060 C   0  0  0  0  0  0  0  0  0  0  0  0
 14 15  2  0  0  0
 15 16  1  0  0  0
 15  8  1  0  0  0
 16 18  1  0  0  0
 18 19  1  0  0  0
 19 20  1  0  0  0
 19 21  1  0  0  0
 20 21  1  0  0  0
  8  9  2  0  0  0
  8 11  1  0  0  0
  9 10  1  0  0  0
 10 13  2  0  0  0
 11 12  2  0  0  0
 12 13  1  0  0  0
 13  1  1  0  0  0
  1  2  2  0  0  0
  1  4  1  0  0  0
  2  3  1  0  0  0
  2  7  1  0  0  0
  4  5  2  0  0  0
  5  6  1  0  0  0
  5 22  1  0  0  0
  6  7  2  0  0  0
 22 23  1  0  0  0
 23 24  2  0  0  0
 23 26  1  0  0  0
 26 27  2  0  0  0
 26 31  1  0  0  0
 27 28  1  0  0  0
 28 29  2  0  0  0
 28 32  1  0  0  0
 29 30  1  0  0  0
 30 31  2  0  0  0
 32 33  1  0  0  0
 32 37  1  0  0  0
 33 34  1  0  0  0
 34 35  1  0  0  0
 35 36  1  0  0  0
 36 37  1  0  0  0
 16 17  1  0  0  0
 22 25  1  0  0  0
M  END
> <minimizedAffinity>
-10.50088

$$$$
3D83_GK6_A_401


 37 41  0  0  0  0  0  0  0  0999 V2000
   40.7488   30.6476   32.8977 C   0  0  0  0  0  0  0  0  0  0  0  0
   39.5827   31.1309   32.2796 C   0  0  0  0  0  0  0  0  0  0  0  0
   38.2291   30.8786   32.9017 C   0  0  0  0  0  0  0  0  0  0  0  0
   41.9828   30.9187   32.2817 C   0  0  0  0  0  0  0  0  0  0  0  0
   42.0518   31.6161   31.0506 C   0  0  0  0  0  0  0  0  0  0  0  0
   40.8775   32.0721   30.4398 C   0  0  0  0  0  0  0  0  0  0  0  0
   39.6381   31.8311   31.0644 C   0  0  0  0  0  0  0  0  0  0  0  0
   40.1189   28.5694   36.5503 C   0  0  0  0  0  0  0  0  0  0  0  0
   40.5893   29.8827   36.5523 C   0  0  0  0  0  0  0  0  0  0  0  0
   40.8240   30.5736   35.3426 C   0  0  0  0  0  0  0  0  0  0  0  0
   39.8719   27.9442   35.3247 C   0  0  0  0  0  0  0  0  0  0  0  0
   40.1048   28.6340   34.1177 C   0  0  0  0  0  0  0  0  0  0  0  0
   40.5932   29.9487   34.1189 C   0  0  0  0  0  0  0  0  0  0  0  0
   39.2618   26.7559   37.8792 O   0  0  0  0  0  0  0  0  0  0  0  0
   39.8746   27.8309   37.8723 C   0  0  0  0  0  0  0  0  0  0  0  0
   40.3011   28.3988   39.0181 N   0  0  0  0  0  0  0  0  0  0  0  0
   40.7983   29.2466   38.9618 H   0  0  0  0  0  0  0  0  0  0  0  0
   40.0635   27.8207   40.3409 C   0  0  0  0  0  0  0  0  0  0  0  0
   39.7791   28.8976   41.3974 C   0  0  0  0  0  0  0  0  0  0  0  0
   39.9009   28.2697   42.7873 C   0  0  0  0  0  0  0  0  0  0  0  0
   41.0097   29.1749   42.2618 C   0  0  0  0  0  0  0  0  0  0  0  0
   43.2442   31.8572   30.4278 N   0  0  0  0  0  0  0  0  0  0  0  0
   44.1987   32.7266   30.8473 C   0  0  0  0  0  0  0  0  0  0  0  0
   44.0404   33.5519   31.7414 O   0  0  0  0  0  0  0  0  0  0  0  0
   43.4273   31.3554   29.6009 H   0  0  0  0  0  0  0  0  0  0  0  0
   45.5590   32.7496   30.1588 C   0  0  0  0  0  0  0  0  0  0  0  0
   46.1378   31.5420   29.7064 C   0  0  0  0  0  0  0  0  0  0  0  0
   47.4092   31.5749   29.0949 C   0  0  0  0  0  0  0  0  0  0  0  0
   48.0529   32.7640   28.9855 N   0  0  0  0  0  0  0  0  0  0  0  0
   47.5233   33.9315   29.4202 C   0  0  0  0  0  0  0  0  0  0  0  0
   46.2630   33.9580   30.0282 C   0  0  0  0  0  0  0  0  0  0  0  0
   48.0234   30.3754   28.6577 N   0  0  0  0  0  0  0  0  0  0  0  0
   47.1573   29.3063   28.1602 C   0  0  0  0  0  0  0  0  0  0  0  0
   47.8808   27.9593   28.2088 C   0  0  0  0  0  0  0  0  0  0  0  0
   49.2077   28.0956   27.7068 O   0  0  0  0  0  0  0  0  0  0  0  0
   49.9636   28.8753   28.6309 C   0  0  0  0  0  0  0  0  0  0  0  0
   49.4994   30.3333   28.5854 C   0  0  0  0  0  0  0  0  0  0  0  0
 14 15  2  0  0  0
 15 16  1  0  0  0
 15  8  1  0  0  0
 16 18  1  0  0  0
 18 19  1  0  0  0
 19 20  1  0  0  0
 19 21  1  0  0  0
 20 21  1  0  0  0
  8  9  2  0  0  0
  8 11  1  0  0  0
  9 10  1  0  0  0
 10 13  2  0  0  0
 11 12  2  0  0  0
 12 13  1  0  0  0
 13  1  1  0  0  0
  1  2  2  0  0  0
  1  4  1  0  0  0
  2  3  1  0  0  0
  2  7  1  0  0  0
  4  5  2  0  0  0
  5  6  1  0  0  0
  5 22  1  0  0  0
  6  7  2  0  0  0
 22 23  1  0  0  0
 23 24  2  0  0  0
 23 26  1  0  0  0
 26 27  2  0  0  0
 26 31  1  0  0  0
 27 28  1  0  0  0
 28 29  2  0  0  0
 28 32  1  0  0  0
 29 30  1  0  0  0
 30 31  2  0  0  0
 32 33  1  0  0  0
 32 37  1  0  0  0
 33 34  1  0  0  0
 34 35  1  0  0  0
 35 36  1  0  0  0
 36 37  1  0  0  0
 16 17  1  0  0  0
 22 25  1  0  0  0
M  END
> <minimizedAffinity>
-10.49094

$$$$
3D83_GK6_A_401


 37 41  0  0  0  0  0  0  0  0999 V2000
   41.3054   30.3906   32.5800 C   0  0  0  0  0  0  0  0  0  0  0  0
   40.1187   30.9276   32.0521 C   0  0  0  0  0  0  0  0  0  0  0  0
   40.0891   31.4742   30.6437 C   0  0  0  0  0  0  0  0  0  0  0  0
   41.2751   29.8869   33.8919 C   0  0  0  0  0  0  0  0  0  0  0  0
   40.0999   29.9591   34.6796 C   0  0  0  0  0  0  0  0  0  0  0  0
   38.9330   30.5162   34.1430 C   0  0  0  0  0  0  0  0  0  0  0  0
   38.9451   30.9967   32.8190 C   0  0  0  0  0  0  0  0  0  0  0  0
   44.7991   30.2669   30.1643 C   0  0  0  0  0  0  0  0  0  0  0  0
   44.3017   31.4834   30.6320 C   0  0  0  0  0  0  0  0  0  0  0  0
   43.1277   31.5365   31.4162 C   0  0  0  0  0  0  0  0  0  0  0  0
   44.1196   29.0903   30.4927 C   0  0  0  0  0  0  0  0  0  0  0  0
   42.9490   29.1431   31.2761 C   0  0  0  0  0  0  0  0  0  0  0  0
   42.4394   30.3673   31.7329 C   0  0  0  0  0  0  0  0  0  0  0  0
   46.3777   31.1969   28.6046 O   0  0  0  0  0  0  0  0  0  0  0  0
   46.0718   30.2266   29.3091 C   0  0  0  0  0  0  0  0  0  0  0  0
   46.8161   29.1026   29.3107 N   0  0  0  0  0  0  0  0  0  0  0  0
   46.5423   28.3625   29.8993 H   0  0  0  0  0  0  0  0  0  0  0  0
   48.0095   28.9254   28.4831 C   0  0  0  0  0  0  0  0  0  0  0  0
   48.2352   27.4547   28.1053 C   0  0  0  0  0  0  0  0  0  0  0  0
   49.6820   27.0780   28.4308 C   0  0  0  0  0  0  0  0  0  0  0  0
   48.5501   26.6013   29.3345 C   0  0  0  0  0  0  0  0  0  0  0  0
   40.0691   29.5009   35.9668 N   0  0  0  0  0  0  0  0  0  0  0  0
   39.7592   28.2370   36.3536 C   0  0  0  0  0  0  0  0  0  0  0  0
   39.2825   27.3823   35.6133 O   0  0  0  0  0  0  0  0  0  0  0  0
   40.2916   30.1451   36.6772 H   0  0  0  0  0  0  0  0  0  0  0  0
   39.9537   27.8195   37.8072 C   0  0  0  0  0  0  0  0  0  0  0  0
   39.7016   26.4837   38.1942 C   0  0  0  0  0  0  0  0  0  0  0  0
   39.8599   26.1178   39.5479 C   0  0  0  0  0  0  0  0  0  0  0  0
   40.2220   27.0683   40.4453 N   0  0  0  0  0  0  0  0  0  0  0  0
   40.4589   28.3557   40.1002 C   0  0  0  0  0  0  0  0  0  0  0  0
   40.3233   28.7721   38.7710 C   0  0  0  0  0  0  0  0  0  0  0  0
   39.5871   24.7921   39.9666 N   0  0  0  0  0  0  0  0  0  0  0  0
   39.1640   23.8280   38.9507 C   0  0  0  0  0  0  0  0  0  0  0  0
   38.4462   22.6422   39.5979 C   0  0  0  0  0  0  0  0  0  0  0  0
   39.1645   22.2004   40.7468 O   0  0  0  0  0  0  0  0  0  0  0  0
   39.0617   23.2009   41.7576 C   0  0  0  0  0  0  0  0  0  0  0  0
   39.8925   24.4255   41.3659 C   0  0  0  0  0  0  0  0  0  0  0  0
 14 15  2  0  0  0
 15 16  1  0  0  0
 15  8  1  0  0  0
 16 18  1  0  0  0
 18 19  1  0  0  0
 19 20  1  0  0  0
 19 21  1  0  0  0
 20 21  1  0  0  0
  8  9  2  0  0  0
  8 11  1  0  0  0
  9 10  1  0  0  0
 10 13  2  0  0  0
 11 12  2  0  0  0
 12 13  1  0  0  0
 13  1  1  0  0  0
  1  2  2  0  0  0
  1  4  1  0  0  0
  2  3  1  0  0  0
  2  7  1  0  0  0
  4  5  2  0  0  0
  5  6  1  0  0  0
  5 22  1  0  0  0
  6  7  2  0  0  0
 22 23  1  0  0  0
 23 24  2  0  0  0
 23 26  1  0  0  0
 26 27  2  0  0  0
 26 31  1  0  0  0
 27 28  1  0  0  0
 28 29  2  0  0  0
 28 32  1  0  0  0
 29 30  1  0  0  0
 30 31  2  0  0  0
 32 33  1  0  0  0
 32 37  1  0  0  0
 33 34  1  0  0  0
 34 35  1  0  0  0
 35 36  1  0  0  0
 36 37  1  0  0  0
 16 17  1  0  0  0
 22 25  1  0  0  0
M  END
> <minimizedAffinity>
-10.47811

$$$$
3D83_GK6_A_401


 37 41  0  0  0  0  0  0  0  0999 V2000
   41.8489   30.1803   31.7302 C   0  0  0  0  0  0  0  0  0  0  0  0
   40.7876   31.0026   31.3146 C   0  0  0  0  0  0  0  0  0  0  0  0
   40.9666   31.9487   30.1501 C   0  0  0  0  0  0  0  0  0  0  0  0
   41.6256   29.3116   32.8125 C   0  0  0  0  0  0  0  0  0  0  0  0
   40.3858   29.2954   33.4977 C   0  0  0  0  0  0  0  0  0  0  0  0
   39.3471   30.1367   33.0816 C   0  0  0  0  0  0  0  0  0  0  0  0
   39.5514   30.9896   31.9792 C   0  0  0  0  0  0  0  0  0  0  0  0
   45.5635   30.3919   29.6774 C   0  0  0  0  0  0  0  0  0  0  0  0
   44.9107   31.5549   30.0863 C   0  0  0  0  0  0  0  0  0  0  0  0
   43.6641   31.4955   30.7485 C   0  0  0  0  0  0  0  0  0  0  0  0
   44.9669   29.1559   29.9425 C   0  0  0  0  0  0  0  0  0  0  0  0
   43.7238   29.0964   30.6044 C   0  0  0  0  0  0  0  0  0  0  0  0
   43.0593   30.2660   31.0012 C   0  0  0  0  0  0  0  0  0  0  0  0
   46.9799   30.9506   27.8143 O   0  0  0  0  0  0  0  0  0  0  0  0
   46.9137   30.4736   28.9542 C   0  0  0  0  0  0  0  0  0  0  0  0
   48.0065   29.9775   29.5680 N   0  0  0  0  0  0  0  0  0  0  0  0
   47.9083   29.6228   30.4811 H   0  0  0  0  0  0  0  0  0  0  0  0
   49.3311   29.9387   28.9478 C   0  0  0  0  0  0  0  0  0  0  0  0
   50.3468   29.1717   29.8062 C   0  0  0  0  0  0  0  0  0  0  0  0
   50.6763   27.8470   29.1153 C   0  0  0  0  0  0  0  0  0  0  0  0
   51.6789   28.9952   29.0765 C   0  0  0  0  0  0  0  0  0  0  0  0
   40.1693   28.4773   34.5708 N   0  0  0  0  0  0  0  0  0  0  0  0
   40.4142   28.7879   35.8696 C   0  0  0  0  0  0  0  0  0  0  0  0
   41.0386   29.7770   36.2403 O   0  0  0  0  0  0  0  0  0  0  0  0
   39.8028   27.5826   34.3854 H   0  0  0  0  0  0  0  0  0  0  0  0
   39.9436   27.8495   36.9754 C   0  0  0  0  0  0  0  0  0  0  0  0
   39.4596   26.5629   36.6464 C   0  0  0  0  0  0  0  0  0  0  0  0
   39.0023   25.7151   37.6777 C   0  0  0  0  0  0  0  0  0  0  0  0
   39.0134   26.1722   38.9548 N   0  0  0  0  0  0  0  0  0  0  0  0
   39.4626   27.4037   39.2929 C   0  0  0  0  0  0  0  0  0  0  0  0
   39.9335   28.2832   38.3114 C   0  0  0  0  0  0  0  0  0  0  0  0
   38.4869   24.4313   37.3718 N   0  0  0  0  0  0  0  0  0  0  0  0
   38.5256   23.9942   35.9762 C   0  0  0  0  0  0  0  0  0  0  0  0
   37.5194   22.8673   35.7357 C   0  0  0  0  0  0  0  0  0  0  0  0
   37.5949   21.9081   36.7870 O   0  0  0  0  0  0  0  0  0  0  0  0
   37.0960   22.5055   37.9818 C   0  0  0  0  0  0  0  0  0  0  0  0
   38.0861   23.5551   38.4931 C   0  0  0  0  0  0  0  0  0  0  0  0
 14 15  2  0  0  0
 15 16  1  0  0  0
 15  8  1  0  0  0
 16 18  1  0  0  0
 18 19  1  0  0  0
 19 20  1  0  0  0
 19 21  1  0  0  0
 20 21  1  0  0  0
  8  9  2  0  0  0
  8 11  1  0  0  0
  9 10  1  0  0  0
 10 13  2  0  0  0
 11 12  2  0  0  0
 12 13  1  0  0  0
 13  1  1  0  0  0
  1  2  2  0  0  0
  1  4  1  0  0  0
  2  3  1  0  0  0
  2  7  1  0  0  0
  4  5  2  0  0  0
  5  6  1  0  0  0
  5 22  1  0  0  0
  6  7  2  0  0  0
 22 23  1  0  0  0
 23 24  2  0  0  0
 23 26  1  0  0  0
 26 27  2  0  0  0
 26 31  1  0  0  0
 27 28  1  0  0  0
 28 29  2  0  0  0
 28 32  1  0  0  0
 29 30  1  0  0  0
 30 31  2  0  0  0
 32 33  1  0  0  0
 32 37  1  0  0  0
 33 34  1  0  0  0
 34 35  1  0  0  0
 35 36  1  0  0  0
 36 37  1  0  0  0
 16 17  1  0  0  0
 22 25  1  0  0  0
M  END
> <minimizedAffinity>
-10.44046

$$$$
3D83_GK6_A_401


 37 41  0  0  0  0  0  0  0  0999 V2000
   40.7768   30.5424   32.7285 C   0  0  0  0  0  0  0  0  0  0  0  0
   39.6843   31.1430   32.0796 C   0  0  0  0  0  0  0  0  0  0  0  0
   38.3124   31.1158   32.7122 C   0  0  0  0  0  0  0  0  0  0  0  0
   42.0328   30.6050   32.1005 C   0  0  0  0  0  0  0  0  0  0  0  0
   42.1896   31.2118   30.8301 C   0  0  0  0  0  0  0  0  0  0  0  0
   41.0852   31.7870   30.1901 C   0  0  0  0  0  0  0  0  0  0  0  0
   39.8280   31.7554   30.8248 C   0  0  0  0  0  0  0  0  0  0  0  0
   40.2092   28.7217   36.5259 C   0  0  0  0  0  0  0  0  0  0  0  0
   39.8757   28.0410   35.3548 C   0  0  0  0  0  0  0  0  0  0  0  0
   40.0389   28.6469   34.0890 C   0  0  0  0  0  0  0  0  0  0  0  0
   40.7203   30.0192   36.4285 C   0  0  0  0  0  0  0  0  0  0  0  0
   40.8844   30.6233   35.1656 C   0  0  0  0  0  0  0  0  0  0  0  0
   40.5340   29.9454   33.9889 C   0  0  0  0  0  0  0  0  0  0  0  0
   40.5699   28.5237   38.8966 O   0  0  0  0  0  0  0  0  0  0  0  0
   40.0206   28.0521   37.8929 C   0  0  0  0  0  0  0  0  0  0  0  0
   39.2857   26.9243   37.9641 N   0  0  0  0  0  0  0  0  0  0  0  0
   38.8547   26.5956   37.1423 H   0  0  0  0  0  0  0  0  0  0  0  0
   39.0954   26.1633   39.1991 C   0  0  0  0  0  0  0  0  0  0  0  0
   39.9939   24.9197   39.2536 C   0  0  0  0  0  0  0  0  0  0  0  0
   39.1085   23.6734   39.3142 C   0  0  0  0  0  0  0  0  0  0  0  0
   39.8144   24.0426   38.0140 C   0  0  0  0  0  0  0  0  0  0  0  0
   43.4002   31.2500   30.1972 N   0  0  0  0  0  0  0  0  0  0  0  0
   44.3903   32.1495   30.4286 C   0  0  0  0  0  0  0  0  0  0  0  0
   44.2608   33.1646   31.1055 O   0  0  0  0  0  0  0  0  0  0  0  0
   43.5694   30.5636   29.5119 H   0  0  0  0  0  0  0  0  0  0  0  0
   45.7589   31.9530   29.7856 C   0  0  0  0  0  0  0  0  0  0  0  0
   46.6979   33.0094   29.7955 C   0  0  0  0  0  0  0  0  0  0  0  0
   47.9506   32.8226   29.1733 C   0  0  0  0  0  0  0  0  0  0  0  0
   48.2062   31.6415   28.5569 N   0  0  0  0  0  0  0  0  0  0  0  0
   47.3192   30.6194   28.5256 C   0  0  0  0  0  0  0  0  0  0  0  0
   46.0645   30.7478   29.1322 C   0  0  0  0  0  0  0  0  0  0  0  0
   48.8989   33.8749   29.1452 N   0  0  0  0  0  0  0  0  0  0  0  0
   48.6072   35.0352   28.3031 C   0  0  0  0  0  0  0  0  0  0  0  0
   49.8886   35.8097   27.9892 C   0  0  0  0  0  0  0  0  0  0  0  0
   50.6721   35.9628   29.1698 O   0  0  0  0  0  0  0  0  0  0  0  0
   51.1793   34.6842   29.5456 C   0  0  0  0  0  0  0  0  0  0  0  0
   50.0428   33.8085   30.0794 C   0  0  0  0  0  0  0  0  0  0  0  0
 14 15  2  0  0  0
 15 16  1  0  0  0
 15  8  1  0  0  0
 16 18  1  0  0  0
 18 19  1  0  0  0
 19 20  1  0  0  0
 19 21  1  0  0  0
 20 21  1  0  0  0
  8  9  2  0  0  0
  8 11  1  0  0  0
  9 10  1  0  0  0
 10 13  2  0  0  0
 11 12  2  0  0  0
 12 13  1  0  0  0
 13  1  1  0  0  0
  1  2  2  0  0  0
  1  4  1  0  0  0
  2  3  1  0  0  0
  2  7  1  0  0  0
  4  5  2  0  0  0
  5  6  1  0  0  0
  5 22  1  0  0  0
  6  7  2  0  0  0
 22 23  1  0  0  0
 23 24  2  0  0  0
 23 26  1  0  0  0
 26 27  2  0  0  0
 26 31  1  0  0  0
 27 28  1  0  0  0
 28 29  2  0  0  0
 28 32  1  0  0  0
 29 30  1  0  0  0
 30 31  2  0  0  0
 32 33  1  0  0  0
 32 37  1  0  0  0
 33 34  1  0  0  0
 34 35  1  0  0  0
 35 36  1  0  0  0
 36 37  1  0  0  0
 16 17  1  0  0  0
 22 25  1  0  0  0
M  END
> <minimizedAffinity>
-10.08243

$$$$
3D83_GK6_A_401


 37 41  0  0  0  0  0  0  0  0999 V2000
   40.8020   30.1973   33.2776 C   0  0  0  0  0  0  0  0  0  0  0  0
   39.7690   30.7880   32.5297 C   0  0  0  0  0  0  0  0  0  0  0  0
   38.3483   30.7690   33.0437 C   0  0  0  0  0  0  0  0  0  0  0  0
   42.1069   30.2517   32.7578 C   0  0  0  0  0  0  0  0  0  0  0  0
   42.3715   30.8407   31.4969 C   0  0  0  0  0  0  0  0  0  0  0  0
   41.3259   31.4062   30.7574 C   0  0  0  0  0  0  0  0  0  0  0  0
   40.0193   31.3829   31.2833 C   0  0  0  0  0  0  0  0  0  0  0  0
   39.9111   28.4190   37.0327 C   0  0  0  0  0  0  0  0  0  0  0  0
   39.5961   27.7620   35.8431 C   0  0  0  0  0  0  0  0  0  0  0  0
   39.8671   28.3556   34.5900 C   0  0  0  0  0  0  0  0  0  0  0  0
   40.5123   29.6792   36.9674 C   0  0  0  0  0  0  0  0  0  0  0  0
   40.7839   30.2709   35.7172 C   0  0  0  0  0  0  0  0  0  0  0  0
   40.4526   29.6179   34.5210 C   0  0  0  0  0  0  0  0  0  0  0  0
   39.6239   26.5313   38.4968 O   0  0  0  0  0  0  0  0  0  0  0  0
   39.6051   27.7636   38.3853 C   0  0  0  0  0  0  0  0  0  0  0  0
   39.2753   28.5539   39.4264 N   0  0  0  0  0  0  0  0  0  0  0  0
   39.2895   29.5294   39.2945 H   0  0  0  0  0  0  0  0  0  0  0  0
   38.8976   28.0373   40.7421 C   0  0  0  0  0  0  0  0  0  0  0  0
   40.1146   27.8529   41.6595 C   0  0  0  0  0  0  0  0  0  0  0  0
   39.6342   27.7966   43.1111 C   0  0  0  0  0  0  0  0  0  0  0  0
   40.0614   26.5166   42.4010 C   0  0  0  0  0  0  0  0  0  0  0  0
   43.6315   30.8707   30.9687 N   0  0  0  0  0  0  0  0  0  0  0  0
   44.2912   29.8157   30.4256 C   0  0  0  0  0  0  0  0  0  0  0  0
   43.9181   28.6494   30.5043 O   0  0  0  0  0  0  0  0  0  0  0  0
   44.1032   31.7347   30.9833 H   0  0  0  0  0  0  0  0  0  0  0  0
   45.6142   30.0399   29.7014 C   0  0  0  0  0  0  0  0  0  0  0  0
   46.4946   28.9536   29.4943 C   0  0  0  0  0  0  0  0  0  0  0  0
   47.7274   29.1808   28.8463 C   0  0  0  0  0  0  0  0  0  0  0  0
   48.0448   30.4437   28.4664 N   0  0  0  0  0  0  0  0  0  0  0  0
   47.2227   31.5011   28.6629 C   0  0  0  0  0  0  0  0  0  0  0  0
   45.9853   31.3321   29.2947 C   0  0  0  0  0  0  0  0  0  0  0  0
   48.6395   28.1144   28.6511 N   0  0  0  0  0  0  0  0  0  0  0  0
   49.8591   28.1018   29.4591 C   0  0  0  0  0  0  0  0  0  0  0  0
   50.9294   27.2248   28.8069 C   0  0  0  0  0  0  0  0  0  0  0  0
   50.3555   25.9990   28.3605 O   0  0  0  0  0  0  0  0  0  0  0  0
   49.4877   26.2780   27.2640 C   0  0  0  0  0  0  0  0  0  0  0  0
   48.2356   27.0047   27.7616 C   0  0  0  0  0  0  0  0  0  0  0  0
 14 15  2  0  0  0
 15 16  1  0  0  0
 15  8  1  0  0  0
 16 18  1  0  0  0
 18 19  1  0  0  0
 19 20  1  0  0  0
 19 21  1  0  0  0
 20 21  1  0  0  0
  8  9  2  0  0  0
  8 11  1  0  0  0
  9 10  1  0  0  0
 10 13  2  0  0  0
 11 12  2  0  0  0
 12 13  1  0  0  0
 13  1  1  0  0  0
  1  2  2  0  0  0
  1  4  1  0  0  0
  2  3  1  0  0  0
  2  7  1  0  0  0
  4  5  2  0  0  0
  5  6  1  0  0  0
  5 22  1  0  0  0
  6  7  2  0  0  0
 22 23  1  0  0  0
 23 24  2  0  0  0
 23 26  1  0  0  0
 26 27  2  0  0  0
 26 31  1  0  0  0
 27 28  1  0  0  0
 28 29  2  0  0  0
 28 32  1  0  0  0
 29 30  1  0  0  0
 30 31  2  0  0  0
 32 33  1  0  0  0
 32 37  1  0  0  0
 33 34  1  0  0  0
 34 35  1  0  0  0
 35 36  1  0  0  0
 36 37  1  0  0  0
 16 17  1  0  0  0
 22 25  1  0  0  0
M  END
> <minimizedAffinity>
-9.87118

$$$$
