2VWC_BC2_A_1215


 43 44  0  0  0  0  0  0  0  0999 V2000
  -26.4218   34.7523   -3.4141 O   0  0  0  0  0  0  0  0  0  0  0  0
  -25.9160   33.8629   -4.1344 C   0  0  0  0  0  0  0  0  0  0  0  0
  -25.4625   32.5602   -3.4868 C   0  0  0  0  0  0  0  0  0  0  0  0
  -24.9284   31.6015   -4.2584 C   0  0  0  0  0  0  0  0  0  0  0  0
  -24.7452   31.8188   -5.7678 C   0  0  0  0  0  0  0  0  0  0  0  0
  -24.2309   30.9160   -6.4791 O   0  0  0  0  0  0  0  0  0  0  0  0
  -25.1839   33.1339   -6.4015 C   0  0  0  0  0  0  0  0  0  0  0  0
  -25.6250   32.3609   -2.1507 N   0  0  0  0  0  0  0  0  0  0  0  0
  -25.0738   33.1051   -1.1624 C   0  0  0  0  0  0  0  0  0  0  0  0
  -25.2405   32.7858    0.0117 O   0  0  0  0  0  0  0  0  0  0  0  0
  -24.2775   34.3243   -1.3953 C   0  0  0  0  0  0  0  0  0  0  0  0
  -24.7461   35.6024   -0.7425 C   0  0  0  0  0  0  0  0  0  0  0  0
  -23.1450   34.2863   -2.1272 C   0  0  0  0  0  0  0  0  0  0  0  0
  -22.3217   35.4723   -2.4084 C   0  0  0  0  0  0  0  0  0  0  0  0
  -21.0296   35.4696   -2.7483 C   0  0  0  0  0  0  0  0  0  0  0  0
  -20.3047   34.1546   -2.7712 C   0  0  0  0  0  0  0  0  0  0  0  0
  -19.2427   34.0727   -1.6691 C   0  0  0  0  0  0  0  0  0  0  0  0
  -25.7298   34.1001   -5.6318 C   0  0  0  0  0  0  0  0  0  0  0  0
  -26.1623   35.4040   -6.2106 C   0  0  0  0  0  0  0  0  0  0  0  0
  -25.0588   36.4738   -6.1682 C   0  0  0  0  0  0  0  0  0  0  0  0
  -24.4572   36.7735   -4.7915 C   0  0  0  0  0  0  0  0  0  0  0  0
  -24.0281   36.3249   -7.2919 C   0  0  0  0  0  0  0  0  0  0  0  0
  -22.6160   36.7737   -6.9652 C   0  0  0  0  0  0  0  0  0  0  0  0
  -21.5667   36.3509   -7.9722 C   0  0  0  0  0  0  0  0  0  0  0  0
  -20.9362   34.9862   -7.5978 C   0  0  0  0  0  0  0  0  0  0  0  0
  -19.9125   34.5374   -8.6385 C   0  0  0  0  0  0  0  0  0  0  0  0
  -20.2214   34.8856   -6.2575 C   0  0  0  0  0  0  0  0  0  0  0  0
  -20.4561   33.8424   -5.4315 C   0  0  0  0  0  0  0  0  0  0  0  0
  -21.4254   32.7505   -5.7946 C   0  0  0  0  0  0  0  0  0  0  0  0
  -19.7692   33.6389   -4.1188 C   0  0  0  0  0  0  0  0  0  0  0  0
  -26.1956   31.6067   -1.8773 H   0  0  0  0  0  0  0  0  0  0  0  0
  -26.5731   35.2300   -7.5766 O   0  0  0  0  0  0  0  0  0  0  0  0
  -27.9973   35.3168   -7.7282 C   0  0  0  0  0  0  0  0  0  0  0  0
  -22.7294   38.1789   -7.2749 O   0  0  0  0  0  0  0  0  0  0  0  0
  -21.6078   39.0097   -6.9494 C   0  0  0  0  0  0  0  0  0  0  0  0
  -22.1991   36.1636   -9.2355 O   0  0  0  0  0  0  0  0  0  0  0  0
  -21.7452   37.1191  -10.2168 C   0  0  0  0  0  0  0  0  0  0  0  0
  -18.8348   32.5520   -4.0342 O   0  0  0  0  0  0  0  0  0  0  0  0
  -17.5576   32.5821   -4.7272 C   0  0  0  0  0  0  0  0  0  0  0  0
  -17.0585   31.4829   -4.9482 O   0  0  0  0  0  0  0  0  0  0  0  0
  -16.9581   33.7107   -5.0903 N   0  0  0  0  0  0  0  0  0  0  0  0
  -17.3835   34.5777   -4.8990 H   0  0  0  0  0  0  0  0  0  0  0  0
  -16.0884   33.6801   -5.5505 H   0  0  0  0  0  0  0  0  0  0  0  0
  1  2  2  0  0  0
  2  3  1  0  0  0
  3  4  2  0  0  0
  4  5  1  0  0  0
  5  6  2  0  0  0
  5  7  1  0  0  0
  3  8  1  0  0  0
  8  9  1  0  0  0
  9 10  2  0  0  0
  9 11  1  0  0  0
 11 12  1  0  0  0
 11 13  2  0  0  0
 13 14  1  0  0  0
 14 15  2  0  0  0
 15 16  1  0  0  0
 16 17  1  0  0  0
  2 18  1  0  0  0
  7 18  2  0  0  0
 18 19  1  0  0  0
 19 32  1  0  0  0
 32 33  1  0  0  0
 19 20  1  0  0  0
 20 21  1  0  0  0
 20 22  1  0  0  0
 22 23  1  0  0  0
 23 34  1  0  0  0
 34 35  1  0  0  0
 23 24  1  0  0  0
 24 36  1  0  0  0
 36 37  1  0  0  0
 24 25  1  0  0  0
 25 26  1  0  0  0
 25 27  1  0  0  0
 27 28  2  0  0  0
 28 29  1  0  0  0
 16 30  1  0  0  0
 28 30  1  0  0  0
 30 38  1  0  0  0
 38 39  1  0  0  0
 39 40  2  0  0  0
 39 41  1  0  0  0
  8 31  1  0  0  0
 41 42  1  0  0  0
 41 43  1  0  0  0
M  END
> <minimizedAffinity>
-10.15081

$$$$
