1MMQ_RRS_A_269


 37 39  0  0  0  0  0  0  0  0999 V2000
   49.4429  -36.4915   46.6808 C   0  0  0  0  0  0  0  0  0  0  0  0
   49.6942  -35.0382   46.3120 C   0  0  0  0  0  0  0  0  0  0  0  0
   48.7913  -34.2048   46.3996 O   0  0  0  0  0  0  0  0  0  0  0  0
   50.8857  -34.7401   45.8189 N   0  0  0  0  0  0  0  0  0  0  0  0
   51.2544  -33.3832   45.3655 C   0  0  0  0  0  0  0  0  0  0  0  0
   52.4003  -33.5149   44.3347 C   0  0  0  0  0  0  0  0  0  0  0  0
   52.0503  -34.3880   43.1106 C   0  0  0  0  0  0  0  0  0  0  0  0
   51.0993  -33.7287   42.0884 C   0  0  0  0  0  0  0  0  0  0  0  0
   50.7345  -34.6326   40.8848 C   0  0  0  0  0  0  0  0  0  0  0  0
   49.4312  -35.4664   40.9768 C   0  0  0  0  0  0  0  0  0  0  0  0
   49.4038  -36.3639   42.1445 N   0  0  0  0  0  0  0  0  0  0  0  0
   48.4900  -37.2069   45.6651 C   0  0  0  0  0  0  0  0  0  0  0  0
   48.9991  -37.1285   44.2725 C   0  0  0  0  0  0  0  0  0  0  0  0
   48.7374  -36.1167   43.3161 C   0  0  0  0  0  0  0  0  0  0  0  0
   49.8727  -38.0284   43.6288 C   0  0  0  0  0  0  0  0  0  0  0  0
   50.1022  -37.5246   42.3070 C   0  0  0  0  0  0  0  0  0  0  0  0
   50.4786  -39.2161   44.0592 C   0  0  0  0  0  0  0  0  0  0  0  0
   50.9378  -38.2294   41.4380 C   0  0  0  0  0  0  0  0  0  0  0  0
   51.3150  -39.9121   43.1782 C   0  0  0  0  0  0  0  0  0  0  0  0
   51.5373  -39.4193   41.8806 C   0  0  0  0  0  0  0  0  0  0  0  0
   51.5579  -35.4562   45.7509 H   0  0  0  0  0  0  0  0  0  0  0  0
   49.4399  -37.5208   48.8734 C   0  0  0  0  0  0  0  0  0  0  0  0
   50.5328  -38.0583   48.6725 O   0  0  0  0  0  0  0  0  0  0  0  0
   48.8554  -36.7337   47.9923 N   0  0  0  0  0  0  0  0  0  0  0  0
   48.0030  -36.2998   48.2254 H   0  0  0  0  0  0  0  0  0  0  0  0
   48.6694  -37.7281   50.1577 C   0  0  0  0  0  0  0  0  0  0  0  0
   49.3690  -38.9415   50.8207 C   0  0  0  0  0  0  0  0  0  0  0  0
   48.3881  -40.0689   50.9788 C   0  0  0  0  0  0  0  0  0  0  0  0
   47.3245  -39.7130   50.4019 O   0  0  0  0  0  0  0  0  0  0  0  0
   48.7354  -41.0949   51.7306 N   0  0  0  0  0  0  0  0  0  0  0  0
   47.7188  -42.0261   51.9276 O   0  0  0  0  0  0  0  0  0  0  0  0
   49.6347  -41.1940   52.1186 H   0  0  0  0  0  0  0  0  0  0  0  0
   46.9198  -41.7363   51.4599 H   0  0  0  0  0  0  0  0  0  0  0  0
   48.6463  -36.4400   51.0139 C   0  0  0  0  0  0  0  0  0  0  0  0
   47.4962  -36.3847   52.0535 C   0  0  0  0  0  0  0  0  0  0  0  0
   47.7508  -35.3262   53.1434 C   0  0  0  0  0  0  0  0  0  0  0  0
   46.2066  -36.0248   51.3050 C   0  0  0  0  0  0  0  0  0  0  0  0
 28 29  2  0  0  0
 28 30  1  0  0  0
 28 27  1  0  0  0
 30 31  1  0  0  0
 27 26  1  0  0  0
 26 22  1  0  0  0
 26 34  1  0  0  0
 22 23  2  0  0  0
 22 24  1  0  0  0
 24  1  1  0  0  0
  1  2  1  0  0  0
  1 12  1  0  0  0
  2  3  2  0  0  0
  2  4  1  0  0  0
  4  5  1  0  0  0
  5  6  1  0  0  0
  6  7  1  0  0  0
  7  8  1  0  0  0
  8  9  1  0  0  0
  9 10  1  0  0  0
 10 11  1  0  0  0
 11 14  1  0  0  0
 11 16  1  0  0  0
 34 35  1  0  0  0
 35 36  1  0  0  0
 35 37  1  0  0  0
 12 13  1  0  0  0
 13 14  2  0  0  0
 13 15  1  0  0  0
 15 16  2  0  0  0
 15 17  1  0  0  0
 16 18  1  0  0  0
 17 19  2  0  0  0
 18 20  2  0  0  0
 19 20  1  0  0  0
 30 32  1  0  0  0
 31 33  1  0  0  0
 24 25  1  0  0  0
  4 21  1  0  0  0
M  END
> <minimizedAffinity>
-9.11752

$$$$
1MMQ_RRS_A_269


 37 39  0  0  0  0  0  0  0  0999 V2000
   49.2929  -37.5639   46.9689 C   0  0  0  0  0  0  0  0  0  0  0  0
   49.4093  -36.0517   46.8630 C   0  0  0  0  0  0  0  0  0  0  0  0
   48.4240  -35.3340   47.0405 O   0  0  0  0  0  0  0  0  0  0  0  0
   50.5819  -35.5631   46.4916 N   0  0  0  0  0  0  0  0  0  0  0  0
   50.8279  -34.1200   46.2926 C   0  0  0  0  0  0  0  0  0  0  0  0
   52.0186  -33.9647   45.3175 C   0  0  0  0  0  0  0  0  0  0  0  0
   51.8043  -34.6428   43.9473 C   0  0  0  0  0  0  0  0  0  0  0  0
   50.8300  -33.9092   43.0005 C   0  0  0  0  0  0  0  0  0  0  0  0
   50.6035  -34.6225   41.6445 C   0  0  0  0  0  0  0  0  0  0  0  0
   49.3887  -35.5778   41.5252 C   0  0  0  0  0  0  0  0  0  0  0  0
   49.4091  -36.6615   42.5227 N   0  0  0  0  0  0  0  0  0  0  0  0
   48.4556  -38.1796   45.7979 C   0  0  0  0  0  0  0  0  0  0  0  0
   49.0054  -37.8154   44.4675 C   0  0  0  0  0  0  0  0  0  0  0  0
   48.6782  -36.6831   43.6816 C   0  0  0  0  0  0  0  0  0  0  0  0
   49.9889  -38.5055   43.7300 C   0  0  0  0  0  0  0  0  0  0  0  0
   50.2150  -37.7624   42.5256 C   0  0  0  0  0  0  0  0  0  0  0  0
   50.6956  -39.6875   43.9870 C   0  0  0  0  0  0  0  0  0  0  0  0
   51.1493  -38.2258   41.5970 C   0  0  0  0  0  0  0  0  0  0  0  0
   51.6302  -40.1402   43.0481 C   0  0  0  0  0  0  0  0  0  0  0  0
   51.8494  -39.4129   41.8653 C   0  0  0  0  0  0  0  0  0  0  0  0
   51.3252  -36.1909   46.3408 H   0  0  0  0  0  0  0  0  0  0  0  0
   49.4099  -38.6496   49.1309 C   0  0  0  0  0  0  0  0  0  0  0  0
   50.6399  -38.7348   49.0722 O   0  0  0  0  0  0  0  0  0  0  0  0
   48.6847  -38.0820   48.1877 N   0  0  0  0  0  0  0  0  0  0  0  0
   47.7107  -38.0064   48.3093 H   0  0  0  0  0  0  0  0  0  0  0  0
   48.6236  -39.2011   50.2986 C   0  0  0  0  0  0  0  0  0  0  0  0
   47.8432  -37.9746   50.8353 C   0  0  0  0  0  0  0  0  0  0  0  0
   48.5782  -37.3759   52.0013 C   0  0  0  0  0  0  0  0  0  0  0  0
   47.8098  -36.5198   52.5185 O   0  0  0  0  0  0  0  0  0  0  0  0
   49.8338  -37.7294   52.1932 N   0  0  0  0  0  0  0  0  0  0  0  0
   50.4732  -37.0278   53.2122 O   0  0  0  0  0  0  0  0  0  0  0  0
   50.2803  -38.4282   51.6625 H   0  0  0  0  0  0  0  0  0  0  0  0
   49.8555  -36.3900   53.6026 H   0  0  0  0  0  0  0  0  0  0  0  0
   47.7429  -40.3979   49.8686 C   0  0  0  0  0  0  0  0  0  0  0  0
   48.4203  -41.7831   50.0394 C   0  0  0  0  0  0  0  0  0  0  0  0
   48.3294  -42.2978   51.4885 C   0  0  0  0  0  0  0  0  0  0  0  0
   47.6991  -42.7730   49.1158 C   0  0  0  0  0  0  0  0  0  0  0  0
 28 29  2  0  0  0
 28 30  1  0  0  0
 28 27  1  0  0  0
 30 31  1  0  0  0
 27 26  1  0  0  0
 26 22  1  0  0  0
 26 34  1  0  0  0
 22 23  2  0  0  0
 22 24  1  0  0  0
 24  1  1  0  0  0
  1  2  1  0  0  0
  1 12  1  0  0  0
  2  3  2  0  0  0
  2  4  1  0  0  0
  4  5  1  0  0  0
  5  6  1  0  0  0
  6  7  1  0  0  0
  7  8  1  0  0  0
  8  9  1  0  0  0
  9 10  1  0  0  0
 10 11  1  0  0  0
 11 14  1  0  0  0
 11 16  1  0  0  0
 34 35  1  0  0  0
 35 36  1  0  0  0
 35 37  1  0  0  0
 12 13  1  0  0  0
 13 14  2  0  0  0
 13 15  1  0  0  0
 15 16  2  0  0  0
 15 17  1  0  0  0
 16 18  1  0  0  0
 17 19  2  0  0  0
 18 20  2  0  0  0
 19 20  1  0  0  0
 30 32  1  0  0  0
 31 33  1  0  0  0
 24 25  1  0  0  0
  4 21  1  0  0  0
M  END
> <minimizedAffinity>
-8.13672

$$$$
1MMQ_RRS_A_269


 37 39  0  0  0  0  0  0  0  0999 V2000
   48.7915  -35.9391   46.7763 C   0  0  0  0  0  0  0  0  0  0  0  0
   48.7746  -36.7761   45.5072 C   0  0  0  0  0  0  0  0  0  0  0  0
   49.3821  -37.8464   45.4550 O   0  0  0  0  0  0  0  0  0  0  0  0
   48.1577  -36.2615   44.4554 N   0  0  0  0  0  0  0  0  0  0  0  0
   48.1079  -36.9340   43.1409 C   0  0  0  0  0  0  0  0  0  0  0  0
   47.8848  -35.8541   42.0560 C   0  0  0  0  0  0  0  0  0  0  0  0
   48.9673  -34.7538   42.0293 C   0  0  0  0  0  0  0  0  0  0  0  0
   50.3242  -35.1865   41.4329 C   0  0  0  0  0  0  0  0  0  0  0  0
   51.4062  -34.0784   41.4453 C   0  0  0  0  0  0  0  0  0  0  0  0
   52.3856  -34.0390   42.6460 C   0  0  0  0  0  0  0  0  0  0  0  0
   51.7000  -33.9113   43.9434 N   0  0  0  0  0  0  0  0  0  0  0  0
   50.2001  -35.3172   47.0602 C   0  0  0  0  0  0  0  0  0  0  0  0
   50.6896  -34.5013   45.9203 C   0  0  0  0  0  0  0  0  0  0  0  0
   51.4593  -34.9408   44.8151 C   0  0  0  0  0  0  0  0  0  0  0  0
   50.4608  -33.1296   45.6892 C   0  0  0  0  0  0  0  0  0  0  0  0
   51.1042  -32.7947   44.4531 C   0  0  0  0  0  0  0  0  0  0  0  0
   49.7672  -32.1585   46.4230 C   0  0  0  0  0  0  0  0  0  0  0  0
   51.0402  -31.4832   43.9780 C   0  0  0  0  0  0  0  0  0  0  0  0
   49.7099  -30.8477   45.9346 C   0  0  0  0  0  0  0  0  0  0  0  0
   50.3438  -30.5188   44.7238 C   0  0  0  0  0  0  0  0  0  0  0  0
   47.7110  -35.3897   44.5536 H   0  0  0  0  0  0  0  0  0  0  0  0
   49.3024  -37.3127   48.7048 C   0  0  0  0  0  0  0  0  0  0  0  0
   50.4955  -37.3820   48.3962 O   0  0  0  0  0  0  0  0  0  0  0  0
   48.4204  -36.6241   48.0079 N   0  0  0  0  0  0  0  0  0  0  0  0
   47.4904  -36.5715   48.3264 H   0  0  0  0  0  0  0  0  0  0  0  0
   48.7459  -38.0246   49.9171 C   0  0  0  0  0  0  0  0  0  0  0  0
   48.9070  -39.5271   49.5738 C   0  0  0  0  0  0  0  0  0  0  0  0
   48.1126  -40.3571   50.5424 C   0  0  0  0  0  0  0  0  0  0  0  0
   46.8944  -40.1402   50.2978 O   0  0  0  0  0  0  0  0  0  0  0  0
   48.7662  -41.0172   51.4780 N   0  0  0  0  0  0  0  0  0  0  0  0
   47.9446  -41.6496   52.4079 O   0  0  0  0  0  0  0  0  0  0  0  0
   49.7490  -41.0595   51.5160 H   0  0  0  0  0  0  0  0  0  0  0  0
   47.0156  -41.4806   52.1861 H   0  0  0  0  0  0  0  0  0  0  0  0
   49.4593  -37.5709   51.2125 C   0  0  0  0  0  0  0  0  0  0  0  0
   48.5527  -36.7923   52.2017 C   0  0  0  0  0  0  0  0  0  0  0  0
   49.0846  -35.3739   52.4813 C   0  0  0  0  0  0  0  0  0  0  0  0
   47.1586  -36.6835   51.5713 C   0  0  0  0  0  0  0  0  0  0  0  0
 28 29  2  0  0  0
 28 30  1  0  0  0
 28 27  1  0  0  0
 30 31  1  0  0  0
 27 26  1  0  0  0
 26 22  1  0  0  0
 26 34  1  0  0  0
 22 23  2  0  0  0
 22 24  1  0  0  0
 24  1  1  0  0  0
  1  2  1  0  0  0
  1 12  1  0  0  0
  2  3  2  0  0  0
  2  4  1  0  0  0
  4  5  1  0  0  0
  5  6  1  0  0  0
  6  7  1  0  0  0
  7  8  1  0  0  0
  8  9  1  0  0  0
  9 10  1  0  0  0
 10 11  1  0  0  0
 11 14  1  0  0  0
 11 16  1  0  0  0
 34 35  1  0  0  0
 35 36  1  0  0  0
 35 37  1  0  0  0
 12 13  1  0  0  0
 13 14  2  0  0  0
 13 15  1  0  0  0
 15 16  2  0  0  0
 15 17  1  0  0  0
 16 18  1  0  0  0
 17 19  2  0  0  0
 18 20  2  0  0  0
 19 20  1  0  0  0
 30 32  1  0  0  0
 31 33  1  0  0  0
 24 25  1  0  0  0
  4 21  1  0  0  0
M  END
> <minimizedAffinity>
-7.96806

$$$$
1MMQ_RRS_A_269


 37 39  0  0  0  0  0  0  0  0999 V2000
   49.2847  -36.2566   47.0186 C   0  0  0  0  0  0  0  0  0  0  0  0
   49.5470  -34.9731   46.2472 C   0  0  0  0  0  0  0  0  0  0  0  0
   48.6974  -34.0820   46.2071 O   0  0  0  0  0  0  0  0  0  0  0  0
   50.6778  -34.9028   45.5631 N   0  0  0  0  0  0  0  0  0  0  0  0
   51.0418  -33.7428   44.7237 C   0  0  0  0  0  0  0  0  0  0  0  0
   52.0418  -34.2236   43.6458 C   0  0  0  0  0  0  0  0  0  0  0  0
   51.5042  -35.3586   42.7481 C   0  0  0  0  0  0  0  0  0  0  0  0
   50.4595  -34.9221   41.6982 C   0  0  0  0  0  0  0  0  0  0  0  0
   49.9087  -36.0804   40.8301 C   0  0  0  0  0  0  0  0  0  0  0  0
   48.5942  -36.7631   41.2868 C   0  0  0  0  0  0  0  0  0  0  0  0
   48.6778  -37.3190   42.6483 N   0  0  0  0  0  0  0  0  0  0  0  0
   48.1825  -37.1412   46.3448 C   0  0  0  0  0  0  0  0  0  0  0  0
   48.5143  -37.4678   44.9348 C   0  0  0  0  0  0  0  0  0  0  0  0
   48.1756  -36.7254   43.7768 C   0  0  0  0  0  0  0  0  0  0  0  0
   49.2617  -38.5664   44.4640 C   0  0  0  0  0  0  0  0  0  0  0  0
   49.3428  -38.4446   43.0384 C   0  0  0  0  0  0  0  0  0  0  0  0
   49.8678  -39.6410   45.1279 C   0  0  0  0  0  0  0  0  0  0  0  0
   50.0321  -39.4117   42.3038 C   0  0  0  0  0  0  0  0  0  0  0  0
   50.5567  -40.6029   44.3793 C   0  0  0  0  0  0  0  0  0  0  0  0
   50.6333  -40.4848   42.9806 C   0  0  0  0  0  0  0  0  0  0  0  0
   51.3060  -35.6590   45.6161 H   0  0  0  0  0  0  0  0  0  0  0  0
   49.3736  -36.8396   49.3679 C   0  0  0  0  0  0  0  0  0  0  0  0
   50.2748  -37.6611   49.1766 O   0  0  0  0  0  0  0  0  0  0  0  0
   48.8583  -36.1031   48.4037 N   0  0  0  0  0  0  0  0  0  0  0  0
   48.1700  -35.4346   48.6241 H   0  0  0  0  0  0  0  0  0  0  0  0
   48.7748  -36.6119   50.7374 C   0  0  0  0  0  0  0  0  0  0  0  0
   47.2859  -37.0045   50.5635 C   0  0  0  0  0  0  0  0  0  0  0  0
   46.4085  -35.9603   51.1945 C   0  0  0  0  0  0  0  0  0  0  0  0
   47.1737  -35.0817   51.6774 O   0  0  0  0  0  0  0  0  0  0  0  0
   45.1096  -36.1825   51.2378 N   0  0  0  0  0  0  0  0  0  0  0  0
   44.3926  -35.2283   51.9554 O   0  0  0  0  0  0  0  0  0  0  0  0
   44.6839  -36.9553   50.8011 H   0  0  0  0  0  0  0  0  0  0  0  0
   45.0024  -34.5574   52.3000 H   0  0  0  0  0  0  0  0  0  0  0  0
   49.5368  -37.4070   51.8238 C   0  0  0  0  0  0  0  0  0  0  0  0
   49.9047  -36.5776   53.0821 C   0  0  0  0  0  0  0  0  0  0  0  0
   51.3190  -36.9042   53.5982 C   0  0  0  0  0  0  0  0  0  0  0  0
   49.8482  -35.0940   52.6969 C   0  0  0  0  0  0  0  0  0  0  0  0
 28 29  2  0  0  0
 28 30  1  0  0  0
 28 27  1  0  0  0
 30 31  1  0  0  0
 27 26  1  0  0  0
 26 22  1  0  0  0
 26 34  1  0  0  0
 22 23  2  0  0  0
 22 24  1  0  0  0
 24  1  1  0  0  0
  1  2  1  0  0  0
  1 12  1  0  0  0
  2  3  2  0  0  0
  2  4  1  0  0  0
  4  5  1  0  0  0
  5  6  1  0  0  0
  6  7  1  0  0  0
  7  8  1  0  0  0
  8  9  1  0  0  0
  9 10  1  0  0  0
 10 11  1  0  0  0
 11 14  1  0  0  0
 11 16  1  0  0  0
 34 35  1  0  0  0
 35 36  1  0  0  0
 35 37  1  0  0  0
 12 13  1  0  0  0
 13 14  2  0  0  0
 13 15  1  0  0  0
 15 16  2  0  0  0
 15 17  1  0  0  0
 16 18  1  0  0  0
 17 19  2  0  0  0
 18 20  2  0  0  0
 19 20  1  0  0  0
 30 32  1  0  0  0
 31 33  1  0  0  0
 24 25  1  0  0  0
  4 21  1  0  0  0
M  END
> <minimizedAffinity>
-7.73141

$$$$
1MMQ_RRS_A_269


 37 39  0  0  0  0  0  0  0  0999 V2000
   49.3975  -37.2354   46.7521 C   0  0  0  0  0  0  0  0  0  0  0  0
   49.6563  -37.6154   48.2013 C   0  0  0  0  0  0  0  0  0  0  0  0
   50.8064  -37.7866   48.6078 O   0  0  0  0  0  0  0  0  0  0  0  0
   48.5971  -37.8333   48.9644 N   0  0  0  0  0  0  0  0  0  0  0  0
   48.6939  -38.2627   50.3747 C   0  0  0  0  0  0  0  0  0  0  0  0
   47.3802  -38.9894   50.7477 C   0  0  0  0  0  0  0  0  0  0  0  0
   47.0612  -40.2112   49.8596 C   0  0  0  0  0  0  0  0  0  0  0  0
   47.9245  -41.4616   50.1340 C   0  0  0  0  0  0  0  0  0  0  0  0
   47.6113  -42.6652   49.2109 C   0  0  0  0  0  0  0  0  0  0  0  0
   48.4657  -42.8332   47.9285 C   0  0  0  0  0  0  0  0  0  0  0  0
   48.4136  -41.6561   47.0445 N   0  0  0  0  0  0  0  0  0  0  0  0
   49.7255  -38.4039   45.7630 C   0  0  0  0  0  0  0  0  0  0  0  0
   48.9753  -39.6418   46.0937 C   0  0  0  0  0  0  0  0  0  0  0  0
   49.3791  -40.6874   46.9601 C   0  0  0  0  0  0  0  0  0  0  0  0
   47.6942  -40.0136   45.6378 C   0  0  0  0  0  0  0  0  0  0  0  0
   47.3760  -41.2715   46.2463 C   0  0  0  0  0  0  0  0  0  0  0  0
   46.7915  -39.3890   44.7673 C   0  0  0  0  0  0  0  0  0  0  0  0
   46.1520  -41.8817   45.9642 C   0  0  0  0  0  0  0  0  0  0  0  0
   45.5674  -40.0112   44.4940 C   0  0  0  0  0  0  0  0  0  0  0  0
   45.2570  -41.2466   45.0885 C   0  0  0  0  0  0  0  0  0  0  0  0
   47.7028  -37.7031   48.5739 H   0  0  0  0  0  0  0  0  0  0  0  0
   49.5506  -34.9161   46.0706 C   0  0  0  0  0  0  0  0  0  0  0  0
   48.3723  -34.7030   46.3704 O   0  0  0  0  0  0  0  0  0  0  0  0
   50.1341  -36.0854   46.2436 N   0  0  0  0  0  0  0  0  0  0  0  0
   51.0888  -36.1840   46.0242 H   0  0  0  0  0  0  0  0  0  0  0  0
   50.4301  -33.8443   45.4675 C   0  0  0  0  0  0  0  0  0  0  0  0
   50.1547  -33.9483   43.9461 C   0  0  0  0  0  0  0  0  0  0  0  0
   51.3544  -34.5287   43.2517 C   0  0  0  0  0  0  0  0  0  0  0  0
   51.1563  -35.7705   43.1541 O   0  0  0  0  0  0  0  0  0  0  0  0
   52.3715  -33.7300   42.9951 N   0  0  0  0  0  0  0  0  0  0  0  0
   53.4872  -34.3793   42.4724 O   0  0  0  0  0  0  0  0  0  0  0  0
   52.3447  -32.7596   43.1586 H   0  0  0  0  0  0  0  0  0  0  0  0
   53.3013  -35.3279   42.3924 H   0  0  0  0  0  0  0  0  0  0  0  0
   50.1365  -32.4593   46.0907 C   0  0  0  0  0  0  0  0  0  0  0  0
   51.3275  -31.8454   46.8726 C   0  0  0  0  0  0  0  0  0  0  0  0
   52.6812  -32.4145   46.4070 C   0  0  0  0  0  0  0  0  0  0  0  0
   51.3161  -30.3311   46.6282 C   0  0  0  0  0  0  0  0  0  0  0  0
 28 29  2  0  0  0
 28 30  1  0  0  0
 28 27  1  0  0  0
 30 31  1  0  0  0
 27 26  1  0  0  0
 26 22  1  0  0  0
 26 34  1  0  0  0
 22 23  2  0  0  0
 22 24  1  0  0  0
 24  1  1  0  0  0
  1  2  1  0  0  0
  1 12  1  0  0  0
  2  3  2  0  0  0
  2  4  1  0  0  0
  4  5  1  0  0  0
  5  6  1  0  0  0
  6  7  1  0  0  0
  7  8  1  0  0  0
  8  9  1  0  0  0
  9 10  1  0  0  0
 10 11  1  0  0  0
 11 14  1  0  0  0
 11 16  1  0  0  0
 34 35  1  0  0  0
 35 36  1  0  0  0
 35 37  1  0  0  0
 12 13  1  0  0  0
 13 14  2  0  0  0
 13 15  1  0  0  0
 15 16  2  0  0  0
 15 17  1  0  0  0
 16 18  1  0  0  0
 17 19  2  0  0  0
 18 20  2  0  0  0
 19 20  1  0  0  0
 30 32  1  0  0  0
 31 33  1  0  0  0
 24 25  1  0  0  0
  4 21  1  0  0  0
M  END
> <minimizedAffinity>
-7.73021

$$$$
1MMQ_RRS_A_269


 37 39  0  0  0  0  0  0  0  0999 V2000
   48.3679  -37.8420   46.5646 C   0  0  0  0  0  0  0  0  0  0  0  0
   48.2230  -38.9281   45.5106 C   0  0  0  0  0  0  0  0  0  0  0  0
   49.0028  -39.8813   45.4825 O   0  0  0  0  0  0  0  0  0  0  0  0
   47.2876  -38.7528   44.5908 N   0  0  0  0  0  0  0  0  0  0  0  0
   47.0679  -39.6949   43.4743 C   0  0  0  0  0  0  0  0  0  0  0  0
   46.3866  -38.9228   42.3199 C   0  0  0  0  0  0  0  0  0  0  0  0
   47.1907  -37.7058   41.8143 C   0  0  0  0  0  0  0  0  0  0  0  0
   48.4292  -38.0505   40.9592 C   0  0  0  0  0  0  0  0  0  0  0  0
   49.2404  -36.8176   40.4895 C   0  0  0  0  0  0  0  0  0  0  0  0
   50.4447  -36.3721   41.3576 C   0  0  0  0  0  0  0  0  0  0  0  0
   50.0695  -36.0687   42.7493 N   0  0  0  0  0  0  0  0  0  0  0  0
   49.6503  -36.9703   46.3482 C   0  0  0  0  0  0  0  0  0  0  0  0
   49.6871  -36.3584   44.9959 C   0  0  0  0  0  0  0  0  0  0  0  0
   50.2495  -36.9080   43.8175 C   0  0  0  0  0  0  0  0  0  0  0  0
   49.1414  -35.1197   44.6019 C   0  0  0  0  0  0  0  0  0  0  0  0
   49.3982  -34.9697   43.2000 C   0  0  0  0  0  0  0  0  0  0  0  0
   48.4584  -34.1268   45.3163 C   0  0  0  0  0  0  0  0  0  0  0  0
   48.9644  -33.8176   42.5409 C   0  0  0  0  0  0  0  0  0  0  0  0
   48.0279  -32.9773   44.6430 C   0  0  0  0  0  0  0  0  0  0  0  0
   48.2829  -32.8290   43.2686 C   0  0  0  0  0  0  0  0  0  0  0  0
   46.7112  -37.9572   44.6536 H   0  0  0  0  0  0  0  0  0  0  0  0
   48.4179  -37.4340   48.9516 C   0  0  0  0  0  0  0  0  0  0  0  0
   48.2870  -36.2170   48.7922 O   0  0  0  0  0  0  0  0  0  0  0  0
   48.4390  -38.2901   47.9495 N   0  0  0  0  0  0  0  0  0  0  0  0
   48.5043  -39.2536   48.1409 H   0  0  0  0  0  0  0  0  0  0  0  0
   48.5733  -38.0499   50.3237 C   0  0  0  0  0  0  0  0  0  0  0  0
   49.0573  -39.4929   50.0321 C   0  0  0  0  0  0  0  0  0  0  0  0
   48.2094  -40.4754   50.7896 C   0  0  0  0  0  0  0  0  0  0  0  0
   47.0412  -40.3881   50.3225 O   0  0  0  0  0  0  0  0  0  0  0  0
   48.7558  -41.1162   51.8042 N   0  0  0  0  0  0  0  0  0  0  0  0
   47.8633  -41.9036   52.5273 O   0  0  0  0  0  0  0  0  0  0  0  0
   49.7112  -41.0442   52.0308 H   0  0  0  0  0  0  0  0  0  0  0  0
   46.9784  -41.8310   52.1367 H   0  0  0  0  0  0  0  0  0  0  0  0
   49.5210  -37.2108   51.2128 C   0  0  0  0  0  0  0  0  0  0  0  0
   48.8322  -36.5537   52.4378 C   0  0  0  0  0  0  0  0  0  0  0  0
   49.4376  -35.1775   52.7737 C   0  0  0  0  0  0  0  0  0  0  0  0
   47.3476  -36.3723   52.0976 C   0  0  0  0  0  0  0  0  0  0  0  0
 28 29  2  0  0  0
 28 30  1  0  0  0
 28 27  1  0  0  0
 30 31  1  0  0  0
 27 26  1  0  0  0
 26 22  1  0  0  0
 26 34  1  0  0  0
 22 23  2  0  0  0
 22 24  1  0  0  0
 24  1  1  0  0  0
  1  2  1  0  0  0
  1 12  1  0  0  0
  2  3  2  0  0  0
  2  4  1  0  0  0
  4  5  1  0  0  0
  5  6  1  0  0  0
  6  7  1  0  0  0
  7  8  1  0  0  0
  8  9  1  0  0  0
  9 10  1  0  0  0
 10 11  1  0  0  0
 11 14  1  0  0  0
 11 16  1  0  0  0
 34 35  1  0  0  0
 35 36  1  0  0  0
 35 37  1  0  0  0
 12 13  1  0  0  0
 13 14  2  0  0  0
 13 15  1  0  0  0
 15 16  2  0  0  0
 15 17  1  0  0  0
 16 18  1  0  0  0
 17 19  2  0  0  0
 18 20  2  0  0  0
 19 20  1  0  0  0
 30 32  1  0  0  0
 31 33  1  0  0  0
 24 25  1  0  0  0
  4 21  1  0  0  0
M  END
> <minimizedAffinity>
-7.67979

$$$$
1MMQ_RRS_A_269


 37 39  0  0  0  0  0  0  0  0999 V2000
   48.4230  -38.2530   45.9985 C   0  0  0  0  0  0  0  0  0  0  0  0
   47.4685  -39.1776   45.2599 C   0  0  0  0  0  0  0  0  0  0  0  0
   47.4376  -40.3816   45.5184 O   0  0  0  0  0  0  0  0  0  0  0  0
   46.7502  -38.6456   44.2839 N   0  0  0  0  0  0  0  0  0  0  0  0
   45.8234  -39.4317   43.4439 C   0  0  0  0  0  0  0  0  0  0  0  0
   45.6481  -38.6908   42.0973 C   0  0  0  0  0  0  0  0  0  0  0  0
   46.9667  -38.4589   41.3288 C   0  0  0  0  0  0  0  0  0  0  0  0
   47.5581  -39.7145   40.6521 C   0  0  0  0  0  0  0  0  0  0  0  0
   48.8972  -39.4676   39.9143 C   0  0  0  0  0  0  0  0  0  0  0  0
   50.2106  -39.7417   40.6905 C   0  0  0  0  0  0  0  0  0  0  0  0
   50.3165  -38.9615   41.9354 N   0  0  0  0  0  0  0  0  0  0  0  0
   49.9193  -38.5180   45.6213 C   0  0  0  0  0  0  0  0  0  0  0  0
   50.1536  -38.4089   44.1591 C   0  0  0  0  0  0  0  0  0  0  0  0
   50.0595  -39.4409   43.1931 C   0  0  0  0  0  0  0  0  0  0  0  0
   50.4860  -37.2492   43.4298 C   0  0  0  0  0  0  0  0  0  0  0  0
   50.5816  -37.6281   42.0510 C   0  0  0  0  0  0  0  0  0  0  0  0
   50.7105  -35.9246   43.8271 C   0  0  0  0  0  0  0  0  0  0  0  0
   50.9057  -36.6643   41.0940 C   0  0  0  0  0  0  0  0  0  0  0  0
   51.0336  -34.9681   42.8571 C   0  0  0  0  0  0  0  0  0  0  0  0
   51.1305  -35.3408   41.5052 C   0  0  0  0  0  0  0  0  0  0  0  0
   46.8375  -37.6806   44.1095 H   0  0  0  0  0  0  0  0  0  0  0  0
   48.5342  -37.2238   48.1884 C   0  0  0  0  0  0  0  0  0  0  0  0
   48.6724  -36.0977   47.7022 O   0  0  0  0  0  0  0  0  0  0  0  0
   48.3799  -38.3077   47.4542 N   0  0  0  0  0  0  0  0  0  0  0  0
   48.2323  -39.1735   47.8991 H   0  0  0  0  0  0  0  0  0  0  0  0
   48.5370  -37.4572   49.6822 C   0  0  0  0  0  0  0  0  0  0  0  0
   49.7936  -38.3320   49.9207 C   0  0  0  0  0  0  0  0  0  0  0  0
   49.3779  -39.7145   50.3380 C   0  0  0  0  0  0  0  0  0  0  0  0
   49.5682  -40.4696   49.3459 O   0  0  0  0  0  0  0  0  0  0  0  0
   48.8212  -39.8655   51.5236 N   0  0  0  0  0  0  0  0  0  0  0  0
   48.3489  -41.1520   51.7710 O   0  0  0  0  0  0  0  0  0  0  0  0
   48.7460  -39.1328   52.1769 H   0  0  0  0  0  0  0  0  0  0  0  0
   48.5233  -41.7143   51.0000 H   0  0  0  0  0  0  0  0  0  0  0  0
   48.5151  -36.1204   50.4603 C   0  0  0  0  0  0  0  0  0  0  0  0
   47.7678  -36.1840   51.8183 C   0  0  0  0  0  0  0  0  0  0  0  0
   48.4327  -35.2967   52.8877 C   0  0  0  0  0  0  0  0  0  0  0  0
   46.3341  -35.6904   51.5863 C   0  0  0  0  0  0  0  0  0  0  0  0
 28 29  2  0  0  0
 28 30  1  0  0  0
 28 27  1  0  0  0
 30 31  1  0  0  0
 27 26  1  0  0  0
 26 22  1  0  0  0
 26 34  1  0  0  0
 22 23  2  0  0  0
 22 24  1  0  0  0
 24  1  1  0  0  0
  1  2  1  0  0  0
  1 12  1  0  0  0
  2  3  2  0  0  0
  2  4  1  0  0  0
  4  5  1  0  0  0
  5  6  1  0  0  0
  6  7  1  0  0  0
  7  8  1  0  0  0
  8  9  1  0  0  0
  9 10  1  0  0  0
 10 11  1  0  0  0
 11 14  1  0  0  0
 11 16  1  0  0  0
 34 35  1  0  0  0
 35 36  1  0  0  0
 35 37  1  0  0  0
 12 13  1  0  0  0
 13 14  2  0  0  0
 13 15  1  0  0  0
 15 16  2  0  0  0
 15 17  1  0  0  0
 16 18  1  0  0  0
 17 19  2  0  0  0
 18 20  2  0  0  0
 19 20  1  0  0  0
 30 32  1  0  0  0
 31 33  1  0  0  0
 24 25  1  0  0  0
  4 21  1  0  0  0
M  END
> <minimizedAffinity>
-7.53580

$$$$
1MMQ_RRS_A_269


 37 39  0  0  0  0  0  0  0  0999 V2000
   49.3514  -37.6118   46.5777 C   0  0  0  0  0  0  0  0  0  0  0  0
   49.6589  -37.6056   48.0666 C   0  0  0  0  0  0  0  0  0  0  0  0
   50.8243  -37.5869   48.4651 O   0  0  0  0  0  0  0  0  0  0  0  0
   48.6307  -37.7079   48.8937 N   0  0  0  0  0  0  0  0  0  0  0  0
   48.7801  -37.7709   50.3621 C   0  0  0  0  0  0  0  0  0  0  0  0
   47.5335  -38.4793   50.9427 C   0  0  0  0  0  0  0  0  0  0  0  0
   47.3008  -39.9013   50.3886 C   0  0  0  0  0  0  0  0  0  0  0  0
   48.2643  -40.9794   50.9303 C   0  0  0  0  0  0  0  0  0  0  0  0
   48.0354  -42.3919   50.3377 C   0  0  0  0  0  0  0  0  0  0  0  0
   48.8832  -42.8049   49.1076 C   0  0  0  0  0  0  0  0  0  0  0  0
   48.7259  -41.8870   47.9663 N   0  0  0  0  0  0  0  0  0  0  0  0
   49.7580  -38.9592   45.8918 C   0  0  0  0  0  0  0  0  0  0  0  0
   49.1130  -40.1306   46.5372 C   0  0  0  0  0  0  0  0  0  0  0  0
   49.6101  -40.8997   47.6181 C   0  0  0  0  0  0  0  0  0  0  0  0
   47.8595  -40.6961   46.2270 C   0  0  0  0  0  0  0  0  0  0  0  0
   47.6505  -41.7869   47.1327 C   0  0  0  0  0  0  0  0  0  0  0  0
   46.8985  -40.3718   45.2606 C   0  0  0  0  0  0  0  0  0  0  0  0
   46.4753  -42.5362   47.0469 C   0  0  0  0  0  0  0  0  0  0  0  0
   45.7242  -41.1305   45.1863 C   0  0  0  0  0  0  0  0  0  0  0  0
   45.5209  -42.2025   46.0727 C   0  0  0  0  0  0  0  0  0  0  0  0
   47.7237  -37.7435   48.5124 H   0  0  0  0  0  0  0  0  0  0  0  0
   49.5722  -35.3197   45.8265 C   0  0  0  0  0  0  0  0  0  0  0  0
   48.6643  -34.9402   46.5717 O   0  0  0  0  0  0  0  0  0  0  0  0
   49.9874  -36.5700   45.7815 N   0  0  0  0  0  0  0  0  0  0  0  0
   50.7440  -36.8052   45.1971 H   0  0  0  0  0  0  0  0  0  0  0  0
   50.2866  -34.3734   44.8883 C   0  0  0  0  0  0  0  0  0  0  0  0
   51.1454  -33.4920   45.8300 C   0  0  0  0  0  0  0  0  0  0  0  0
   50.6764  -32.0661   45.7583 C   0  0  0  0  0  0  0  0  0  0  0  0
   51.6544  -31.3784   45.3567 O   0  0  0  0  0  0  0  0  0  0  0  0
   49.4675  -31.7857   46.2036 N   0  0  0  0  0  0  0  0  0  0  0  0
   49.1687  -30.4256   46.2212 O   0  0  0  0  0  0  0  0  0  0  0  0
   48.8316  -32.4773   46.4978 H   0  0  0  0  0  0  0  0  0  0  0  0
   49.9303  -29.9230   45.8921 H   0  0  0  0  0  0  0  0  0  0  0  0
   51.0834  -35.1453   43.8102 C   0  0  0  0  0  0  0  0  0  0  0  0
   50.8135  -34.6741   42.3570 C   0  0  0  0  0  0  0  0  0  0  0  0
   49.3231  -34.3696   42.1140 C   0  0  0  0  0  0  0  0  0  0  0  0
   51.6255  -33.3941   42.1223 C   0  0  0  0  0  0  0  0  0  0  0  0
 28 29  2  0  0  0
 28 30  1  0  0  0
 28 27  1  0  0  0
 30 31  1  0  0  0
 27 26  1  0  0  0
 26 22  1  0  0  0
 26 34  1  0  0  0
 22 23  2  0  0  0
 22 24  1  0  0  0
 24  1  1  0  0  0
  1  2  1  0  0  0
  1 12  1  0  0  0
  2  3  2  0  0  0
  2  4  1  0  0  0
  4  5  1  0  0  0
  5  6  1  0  0  0
  6  7  1  0  0  0
  7  8  1  0  0  0
  8  9  1  0  0  0
  9 10  1  0  0  0
 10 11  1  0  0  0
 11 14  1  0  0  0
 11 16  1  0  0  0
 34 35  1  0  0  0
 35 36  1  0  0  0
 35 37  1  0  0  0
 12 13  1  0  0  0
 13 14  2  0  0  0
 13 15  1  0  0  0
 15 16  2  0  0  0
 15 17  1  0  0  0
 16 18  1  0  0  0
 17 19  2  0  0  0
 18 20  2  0  0  0
 19 20  1  0  0  0
 30 32  1  0  0  0
 31 33  1  0  0  0
 24 25  1  0  0  0
  4 21  1  0  0  0
M  END
> <minimizedAffinity>
-7.43229

$$$$
1MMQ_RRS_A_269


 37 39  0  0  0  0  0  0  0  0999 V2000
   49.5907  -37.5388   46.3618 C   0  0  0  0  0  0  0  0  0  0  0  0
   49.5719  -36.0781   46.7829 C   0  0  0  0  0  0  0  0  0  0  0  0
   48.5964  -35.6084   47.3704 O   0  0  0  0  0  0  0  0  0  0  0  0
   50.6015  -35.3325   46.4145 N   0  0  0  0  0  0  0  0  0  0  0  0
   50.6945  -33.8866   46.7034 C   0  0  0  0  0  0  0  0  0  0  0  0
   51.6391  -33.2469   45.6587 C   0  0  0  0  0  0  0  0  0  0  0  0
   51.1914  -33.4505   44.1953 C   0  0  0  0  0  0  0  0  0  0  0  0
   49.9891  -32.5882   43.7539 C   0  0  0  0  0  0  0  0  0  0  0  0
   49.5351  -32.8311   42.2932 C   0  0  0  0  0  0  0  0  0  0  0  0
   48.3952  -33.8533   42.0518 C   0  0  0  0  0  0  0  0  0  0  0  0
   48.7036  -35.1938   42.5788 N   0  0  0  0  0  0  0  0  0  0  0  0
   48.5730  -37.8392   45.2104 C   0  0  0  0  0  0  0  0  0  0  0  0
   48.8029  -36.9769   44.0237 C   0  0  0  0  0  0  0  0  0  0  0  0
   48.2362  -35.7053   43.7611 C   0  0  0  0  0  0  0  0  0  0  0  0
   49.6568  -37.2336   42.9319 C   0  0  0  0  0  0  0  0  0  0  0  0
   49.5700  -36.1063   42.0513 C   0  0  0  0  0  0  0  0  0  0  0  0
   50.4859  -38.3207   42.6259 C   0  0  0  0  0  0  0  0  0  0  0  0
   50.3193  -36.0949   40.8730 C   0  0  0  0  0  0  0  0  0  0  0  0
   51.2326  -38.2959   41.4419 C   0  0  0  0  0  0  0  0  0  0  0  0
   51.1447  -37.1914   40.5768 C   0  0  0  0  0  0  0  0  0  0  0  0
   51.3401  -35.7616   45.9250 H   0  0  0  0  0  0  0  0  0  0  0  0
   49.6622  -39.7756   47.2884 C   0  0  0  0  0  0  0  0  0  0  0  0
   50.3216  -40.1986   46.3346 O   0  0  0  0  0  0  0  0  0  0  0  0
   49.2917  -38.5155   47.4012 N   0  0  0  0  0  0  0  0  0  0  0  0
   48.8022  -38.2279   48.2055 H   0  0  0  0  0  0  0  0  0  0  0  0
   49.2138  -40.6783   48.4153 C   0  0  0  0  0  0  0  0  0  0  0  0
   48.6650  -39.6981   49.4826 C   0  0  0  0  0  0  0  0  0  0  0  0
   47.9677  -40.4682   50.5684 C   0  0  0  0  0  0  0  0  0  0  0  0
   46.7358  -40.2207   50.4601 O   0  0  0  0  0  0  0  0  0  0  0  0
   48.7087  -41.1167   51.4453 N   0  0  0  0  0  0  0  0  0  0  0  0
   47.9854  -41.6899   52.4883 O   0  0  0  0  0  0  0  0  0  0  0  0
   49.6875  -41.1893   51.3694 H   0  0  0  0  0  0  0  0  0  0  0  0
   47.0418  -41.4988   52.3707 H   0  0  0  0  0  0  0  0  0  0  0  0
   48.2008  -41.7368   47.9189 C   0  0  0  0  0  0  0  0  0  0  0  0
   48.7808  -43.1710   47.8031 C   0  0  0  0  0  0  0  0  0  0  0  0
   49.8183  -43.4669   48.9027 C   0  0  0  0  0  0  0  0  0  0  0  0
   47.6158  -44.1589   47.9423 C   0  0  0  0  0  0  0  0  0  0  0  0
 28 29  2  0  0  0
 28 30  1  0  0  0
 28 27  1  0  0  0
 30 31  1  0  0  0
 27 26  1  0  0  0
 26 22  1  0  0  0
 26 34  1  0  0  0
 22 23  2  0  0  0
 22 24  1  0  0  0
 24  1  1  0  0  0
  1  2  1  0  0  0
  1 12  1  0  0  0
  2  3  2  0  0  0
  2  4  1  0  0  0
  4  5  1  0  0  0
  5  6  1  0  0  0
  6  7  1  0  0  0
  7  8  1  0  0  0
  8  9  1  0  0  0
  9 10  1  0  0  0
 10 11  1  0  0  0
 11 14  1  0  0  0
 11 16  1  0  0  0
 34 35  1  0  0  0
 35 36  1  0  0  0
 35 37  1  0  0  0
 12 13  1  0  0  0
 13 14  2  0  0  0
 13 15  1  0  0  0
 15 16  2  0  0  0
 15 17  1  0  0  0
 16 18  1  0  0  0
 17 19  2  0  0  0
 18 20  2  0  0  0
 19 20  1  0  0  0
 30 32  1  0  0  0
 31 33  1  0  0  0
 24 25  1  0  0  0
  4 21  1  0  0  0
M  END
> <minimizedAffinity>
-7.04197

$$$$
1MMQ_RRS_A_269


 37 39  0  0  0  0  0  0  0  0999 V2000
   49.8219  -35.0913   45.5808 C   0  0  0  0  0  0  0  0  0  0  0  0
   48.9975  -35.0857   44.3034 C   0  0  0  0  0  0  0  0  0  0  0  0
   49.1946  -35.9289   43.4273 O   0  0  0  0  0  0  0  0  0  0  0  0
   48.1347  -34.0941   44.1487 N   0  0  0  0  0  0  0  0  0  0  0  0
   47.3066  -33.9274   42.9366 C   0  0  0  0  0  0  0  0  0  0  0  0
   46.9164  -32.4349   42.8217 C   0  0  0  0  0  0  0  0  0  0  0  0
   48.1208  -31.4713   42.7574 C   0  0  0  0  0  0  0  0  0  0  0  0
   48.8770  -31.4595   41.4113 C   0  0  0  0  0  0  0  0  0  0  0  0
   50.1009  -30.5111   41.3782 C   0  0  0  0  0  0  0  0  0  0  0  0
   51.4900  -31.1130   41.7107 C   0  0  0  0  0  0  0  0  0  0  0  0
   51.5393  -31.7461   43.0398 N   0  0  0  0  0  0  0  0  0  0  0  0
   51.3134  -34.6878   45.3281 C   0  0  0  0  0  0  0  0  0  0  0  0
   51.4286  -33.3626   44.6682 C   0  0  0  0  0  0  0  0  0  0  0  0
   51.4533  -33.0929   43.2777 C   0  0  0  0  0  0  0  0  0  0  0  0
   51.5044  -32.1002   45.2909 C   0  0  0  0  0  0  0  0  0  0  0  0
   51.5741  -31.1174   44.2502 C   0  0  0  0  0  0  0  0  0  0  0  0
   51.5194  -31.7197   46.6392 C   0  0  0  0  0  0  0  0  0  0  0  0
   51.6611  -29.7649   44.5865 C   0  0  0  0  0  0  0  0  0  0  0  0
   51.6057  -30.3602   46.9623 C   0  0  0  0  0  0  0  0  0  0  0  0
   51.6774  -29.3967   45.9413 C   0  0  0  0  0  0  0  0  0  0  0  0
   48.0402  -33.4367   44.8754 H   0  0  0  0  0  0  0  0  0  0  0  0
   49.3560  -36.4870   47.5048 C   0  0  0  0  0  0  0  0  0  0  0  0
   48.7364  -35.5808   48.0692 O   0  0  0  0  0  0  0  0  0  0  0  0
   49.8847  -36.3546   46.3046 N   0  0  0  0  0  0  0  0  0  0  0  0
   50.3319  -37.1264   45.8878 H   0  0  0  0  0  0  0  0  0  0  0  0
   49.5681  -37.8365   48.1528 C   0  0  0  0  0  0  0  0  0  0  0  0
   49.0373  -37.6448   49.5960 C   0  0  0  0  0  0  0  0  0  0  0  0
   49.4276  -38.8245   50.4412 C   0  0  0  0  0  0  0  0  0  0  0  0
   50.6592  -39.0194   50.2522 O   0  0  0  0  0  0  0  0  0  0  0  0
   48.4755  -39.4712   51.0844 N   0  0  0  0  0  0  0  0  0  0  0  0
   48.9089  -40.6249   51.7328 O   0  0  0  0  0  0  0  0  0  0  0  0
   47.5399  -39.1651   51.1046 H   0  0  0  0  0  0  0  0  0  0  0  0
   49.8606  -40.7407   51.5851 H   0  0  0  0  0  0  0  0  0  0  0  0
   48.8772  -38.9621   47.3474 C   0  0  0  0  0  0  0  0  0  0  0  0
   49.8113  -40.1407   46.9666 C   0  0  0  0  0  0  0  0  0  0  0  0
   49.4577  -41.4305   47.7311 C   0  0  0  0  0  0  0  0  0  0  0  0
   49.6516  -40.3965   45.4627 C   0  0  0  0  0  0  0  0  0  0  0  0
 28 29  2  0  0  0
 28 30  1  0  0  0
 28 27  1  0  0  0
 30 31  1  0  0  0
 27 26  1  0  0  0
 26 22  1  0  0  0
 26 34  1  0  0  0
 22 23  2  0  0  0
 22 24  1  0  0  0
 24  1  1  0  0  0
  1  2  1  0  0  0
  1 12  1  0  0  0
  2  3  2  0  0  0
  2  4  1  0  0  0
  4  5  1  0  0  0
  5  6  1  0  0  0
  6  7  1  0  0  0
  7  8  1  0  0  0
  8  9  1  0  0  0
  9 10  1  0  0  0
 10 11  1  0  0  0
 11 14  1  0  0  0
 11 16  1  0  0  0
 34 35  1  0  0  0
 35 36  1  0  0  0
 35 37  1  0  0  0
 12 13  1  0  0  0
 13 14  2  0  0  0
 13 15  1  0  0  0
 15 16  2  0  0  0
 15 17  1  0  0  0
 16 18  1  0  0  0
 17 19  2  0  0  0
 18 20  2  0  0  0
 19 20  1  0  0  0
 30 32  1  0  0  0
 31 33  1  0  0  0
 24 25  1  0  0  0
  4 21  1  0  0  0
M  END
> <minimizedAffinity>
-6.83559

$$$$
