6EKQ_B0H_A_801


 25 27  0  0  0  0  0  0  0  0999 V2000
   18.7838  -15.7310    7.4127 C   0  0  0  0  0  0  0  0  0  0  0  0
   18.6024  -14.4572    7.0341 C   0  0  0  0  0  0  0  0  0  0  0  0
   20.8204  -14.2851    7.4089 C   0  0  0  0  0  0  0  0  0  0  0  0
   19.7029  -13.6634    7.0299 N   0  0  0  0  0  0  0  0  0  0  0  0
   20.4259  -15.9173    7.7784 S   0  0  0  0  0  0  0  0  0  0  0  0
   22.6738  -13.2844    6.3507 C   0  0  0  0  0  0  0  0  0  0  0  0
   22.0122  -13.6642    7.4703 N   0  0  0  0  0  0  0  0  0  0  0  0
   22.2536  -13.4518    5.2049 O   0  0  0  0  0  0  0  0  0  0  0  0
   22.4135  -13.4814    8.3505 H   0  0  0  0  0  0  0  0  0  0  0  0
   25.9312   -9.6617    6.6482 C   0  0  0  0  0  0  0  0  0  0  0  0
   25.3632  -14.5759    7.5285 C   0  0  0  0  0  0  0  0  0  0  0  0
   25.3011  -11.0527    6.7491 C   0  0  0  0  0  0  0  0  0  0  0  0
   25.0109  -13.1434    7.1003 C   0  0  0  0  0  0  0  0  0  0  0  0
   23.8510  -12.6719    6.6079 C   0  0  0  0  0  0  0  0  0  0  0  0
   25.9077  -12.1524    7.1898 N   0  0  0  0  0  0  0  0  0  0  0  0
   24.0417  -11.3171    6.3761 O   0  0  0  0  0  0  0  0  0  0  0  0
   17.2219  -13.9240    6.6123 C   0  0  0  0  0  0  0  0  0  0  0  0
   14.0861  -10.1675    6.3183 C   0  0  0  0  0  0  0  0  0  0  0  0
   15.8870  -11.6679   10.7492 C   0  0  0  0  0  0  0  0  0  0  0  0
   14.9421  -10.9135    8.5461 C   0  0  0  0  0  0  0  0  0  0  0  0
   15.7567  -12.0296    6.4676 C   0  0  0  0  0  0  0  0  0  0  0  0
   16.5576  -12.7786    8.6244 C   0  0  0  0  0  0  0  0  0  0  0  0
   15.3036  -10.7056    7.0750 C   0  0  0  0  0  0  0  0  0  0  0  0
   16.1814  -11.4517    9.2598 C   0  0  0  0  0  0  0  0  0  0  0  0
   16.9089  -12.6065    7.2039 N   0  0  0  0  0  0  0  0  0  0  0  0
 10 12  1  0  0  0
 12 15  2  0  0  0
 12 16  1  0  0  0
 15 13  1  0  0  0
 16 14  1  0  0  0
 13 14  2  0  0  0
 13 11  1  0  0  0
 14  6  1  0  0  0
  7  6  1  0  0  0
  7  3  1  0  0  0
  6  8  2  0  0  0
  4  3  2  0  0  0
  4  2  1  0  0  0
  3  5  1  0  0  0
 17  2  1  0  0  0
 17 25  1  0  0  0
 22 25  1  0  0  0
 22 24  1  0  0  0
  2  1  2  0  0  0
 19 24  1  0  0  0
 25 21  1  0  0  0
 24 20  1  0  0  0
  5  1  1  0  0  0
 21 23  1  0  0  0
 20 23  1  0  0  0
 23 18  1  0  0  0
  7  9  1  0  0  0
M  END
> <minimizedAffinity>
-7.14266

$$$$
6EKQ_B0H_A_801


 25 27  0  0  0  0  0  0  0  0999 V2000
   19.3153  -11.7222    8.0669 C   0  0  0  0  0  0  0  0  0  0  0  0
   19.0164  -12.7877    7.3091 C   0  0  0  0  0  0  0  0  0  0  0  0
   17.2740  -11.5192    6.6419 C   0  0  0  0  0  0  0  0  0  0  0  0
   17.9083  -12.6874    6.5323 N   0  0  0  0  0  0  0  0  0  0  0  0
   18.1309  -10.5490    7.7737 S   0  0  0  0  0  0  0  0  0  0  0  0
   15.0033  -10.8902    6.5781 C   0  0  0  0  0  0  0  0  0  0  0  0
   16.1551  -11.2325    5.9525 N   0  0  0  0  0  0  0  0  0  0  0  0
   14.8777  -10.7963    7.8000 O   0  0  0  0  0  0  0  0  0  0  0  0
   16.1738  -11.2724    4.9689 H   0  0  0  0  0  0  0  0  0  0  0  0
   10.8510  -11.6205    4.1188 C   0  0  0  0  0  0  0  0  0  0  0  0
   14.5495   -8.2818    4.7676 C   0  0  0  0  0  0  0  0  0  0  0  0
   12.1296  -10.9558    4.6341 C   0  0  0  0  0  0  0  0  0  0  0  0
   13.7309   -9.5701    4.9404 C   0  0  0  0  0  0  0  0  0  0  0  0
   13.9875  -10.6331    5.7242 C   0  0  0  0  0  0  0  0  0  0  0  0
   12.5891   -9.7620    4.2668 N   0  0  0  0  0  0  0  0  0  0  0  0
   12.9511  -11.5331    5.5212 O   0  0  0  0  0  0  0  0  0  0  0  0
   19.8903  -14.0542    7.3078 C   0  0  0  0  0  0  0  0  0  0  0  0
   24.2360  -16.1563    8.1608 C   0  0  0  0  0  0  0  0  0  0  0  0
   23.8133  -12.3596    4.9153 C   0  0  0  0  0  0  0  0  0  0  0  0
   24.0512  -14.2855    6.5120 C   0  0  0  0  0  0  0  0  0  0  0  0
   22.0342  -15.0196    7.7857 C   0  0  0  0  0  0  0  0  0  0  0  0
   21.8448  -13.2347    6.1632 C   0  0  0  0  0  0  0  0  0  0  0  0
   23.5459  -14.8251    7.8505 C   0  0  0  0  0  0  0  0  0  0  0  0
   23.3366  -12.9621    6.2424 C   0  0  0  0  0  0  0  0  0  0  0  0
   21.3320  -13.7583    7.4414 N   0  0  0  0  0  0  0  0  0  0  0  0
 10 12  1  0  0  0
 12 15  2  0  0  0
 12 16  1  0  0  0
 15 13  1  0  0  0
 16 14  1  0  0  0
 13 14  2  0  0  0
 13 11  1  0  0  0
 14  6  1  0  0  0
  7  6  1  0  0  0
  7  3  1  0  0  0
  6  8  2  0  0  0
  4  3  2  0  0  0
  4  2  1  0  0  0
  3  5  1  0  0  0
 17  2  1  0  0  0
 17 25  1  0  0  0
 22 25  1  0  0  0
 22 24  1  0  0  0
  2  1  2  0  0  0
 19 24  1  0  0  0
 25 21  1  0  0  0
 24 20  1  0  0  0
  5  1  1  0  0  0
 21 23  1  0  0  0
 20 23  1  0  0  0
 23 18  1  0  0  0
  7  9  1  0  0  0
M  END
> <minimizedAffinity>
-6.97396

$$$$
6EKQ_B0H_A_801


 25 27  0  0  0  0  0  0  0  0999 V2000
   18.5261  -15.3296    6.3496 C   0  0  0  0  0  0  0  0  0  0  0  0
   18.9642  -14.2183    6.9594 C   0  0  0  0  0  0  0  0  0  0  0  0
   17.1898  -13.2575    5.9504 C   0  0  0  0  0  0  0  0  0  0  0  0
   18.2454  -13.0870    6.7476 N   0  0  0  0  0  0  0  0  0  0  0  0
   17.1422  -14.9080    5.4708 S   0  0  0  0  0  0  0  0  0  0  0  0
   15.3483  -11.8702    6.4408 C   0  0  0  0  0  0  0  0  0  0  0  0
   16.3575  -12.2530    5.6220 N   0  0  0  0  0  0  0  0  0  0  0  0
   15.1126  -12.3789    7.5377 O   0  0  0  0  0  0  0  0  0  0  0  0
   16.4850  -11.7845    4.7656 H   0  0  0  0  0  0  0  0  0  0  0  0
   11.5284   -9.5486    4.4810 C   0  0  0  0  0  0  0  0  0  0  0  0
   16.2052   -8.7925    6.1549 C   0  0  0  0  0  0  0  0  0  0  0  0
   12.9121   -9.8063    5.0817 C   0  0  0  0  0  0  0  0  0  0  0  0
   14.9096   -9.5376    5.8003 C   0  0  0  0  0  0  0  0  0  0  0  0
   14.6207  -10.8433    5.9476 C   0  0  0  0  0  0  0  0  0  0  0  0
   13.8626   -8.8935    5.2679 N   0  0  0  0  0  0  0  0  0  0  0  0
   13.3270  -11.0174    5.4770 O   0  0  0  0  0  0  0  0  0  0  0  0
   20.2090  -14.2254    7.8641 C   0  0  0  0  0  0  0  0  0  0  0  0
   23.5526  -12.0013    5.0526 C   0  0  0  0  0  0  0  0  0  0  0  0
   24.9039  -15.5355    8.3405 C   0  0  0  0  0  0  0  0  0  0  0  0
   24.2614  -13.7376    6.7065 C   0  0  0  0  0  0  0  0  0  0  0  0
   21.8389  -13.2042    6.4299 C   0  0  0  0  0  0  0  0  0  0  0  0
   22.5253  -14.8574    8.0579 C   0  0  0  0  0  0  0  0  0  0  0  0
   23.1765  -13.3331    5.7078 C   0  0  0  0  0  0  0  0  0  0  0  0
   23.8447  -15.0662    7.3358 C   0  0  0  0  0  0  0  0  0  0  0  0
   21.4615  -14.4642    7.1172 N   0  0  0  0  0  0  0  0  0  0  0  0
 10 12  1  0  0  0
 12 15  2  0  0  0
 12 16  1  0  0  0
 15 13  1  0  0  0
 16 14  1  0  0  0
 13 14  2  0  0  0
 13 11  1  0  0  0
 14  6  1  0  0  0
  7  6  1  0  0  0
  7  3  1  0  0  0
  6  8  2  0  0  0
  4  3  2  0  0  0
  4  2  1  0  0  0
  3  5  1  0  0  0
 17  2  1  0  0  0
 17 25  1  0  0  0
 22 25  1  0  0  0
 22 24  1  0  0  0
  2  1  2  0  0  0
 19 24  1  0  0  0
 25 21  1  0  0  0
 24 20  1  0  0  0
  5  1  1  0  0  0
 21 23  1  0  0  0
 20 23  1  0  0  0
 23 18  1  0  0  0
  7  9  1  0  0  0
M  END
> <minimizedAffinity>
-6.89369

$$$$
6EKQ_B0H_A_801


 25 27  0  0  0  0  0  0  0  0999 V2000
   15.9070  -10.2263    7.4562 C   0  0  0  0  0  0  0  0  0  0  0  0
   15.9883  -11.2068    8.3677 C   0  0  0  0  0  0  0  0  0  0  0  0
   18.0851  -11.4435    7.5696 C   0  0  0  0  0  0  0  0  0  0  0  0
   17.1675  -11.8748    8.4361 N   0  0  0  0  0  0  0  0  0  0  0  0
   17.3972  -10.1595    6.6561 S   0  0  0  0  0  0  0  0  0  0  0  0
   19.5683  -13.0546    6.6975 C   0  0  0  0  0  0  0  0  0  0  0  0
   19.3149  -11.9821    7.4855 N   0  0  0  0  0  0  0  0  0  0  0  0
   18.7267  -13.6127    5.9920 O   0  0  0  0  0  0  0  0  0  0  0  0
   20.0489  -11.5873    8.0096 H   0  0  0  0  0  0  0  0  0  0  0  0
   24.3366  -13.0931    5.6559 C   0  0  0  0  0  0  0  0  0  0  0  0
   20.8514  -15.4477    8.4047 C   0  0  0  0  0  0  0  0  0  0  0  0
   22.9887  -13.4637    6.2787 C   0  0  0  0  0  0  0  0  0  0  0  0
   21.4665  -14.4373    7.4247 C   0  0  0  0  0  0  0  0  0  0  0  0
   20.8593  -13.4532    6.7369 C   0  0  0  0  0  0  0  0  0  0  0  0
   22.7770  -14.4495    7.1475 N   0  0  0  0  0  0  0  0  0  0  0  0
   21.8464  -12.8256    5.9904 O   0  0  0  0  0  0  0  0  0  0  0  0
   14.8120  -11.5496    9.2987 C   0  0  0  0  0  0  0  0  0  0  0  0
   16.4358  -10.2131   13.7268 C   0  0  0  0  0  0  0  0  0  0  0  0
   13.3465  -14.1250   13.1981 C   0  0  0  0  0  0  0  0  0  0  0  0
   14.8698  -12.1490   13.4984 C   0  0  0  0  0  0  0  0  0  0  0  0
   15.6721  -10.9557   11.4584 C   0  0  0  0  0  0  0  0  0  0  0  0
   14.1271  -12.8046   11.2373 C   0  0  0  0  0  0  0  0  0  0  0  0
   16.0518  -11.4169   12.8621 C   0  0  0  0  0  0  0  0  0  0  0  0
   14.5203  -13.3374   12.6038 C   0  0  0  0  0  0  0  0  0  0  0  0
   15.2493  -12.0917   10.6021 N   0  0  0  0  0  0  0  0  0  0  0  0
 10 12  1  0  0  0
 12 15  2  0  0  0
 12 16  1  0  0  0
 15 13  1  0  0  0
 16 14  1  0  0  0
 13 14  2  0  0  0
 13 11  1  0  0  0
 14  6  1  0  0  0
  7  6  1  0  0  0
  7  3  1  0  0  0
  6  8  2  0  0  0
  4  3  2  0  0  0
  4  2  1  0  0  0
  3  5  1  0  0  0
 17  2  1  0  0  0
 17 25  1  0  0  0
 22 25  1  0  0  0
 22 24  1  0  0  0
  2  1  2  0  0  0
 19 24  1  0  0  0
 25 21  1  0  0  0
 24 20  1  0  0  0
  5  1  1  0  0  0
 21 23  1  0  0  0
 20 23  1  0  0  0
 23 18  1  0  0  0
  7  9  1  0  0  0
M  END
> <minimizedAffinity>
-6.56927

$$$$
6EKQ_B0H_A_801


 25 27  0  0  0  0  0  0  0  0999 V2000
   17.9764  -14.3247    6.9966 C   0  0  0  0  0  0  0  0  0  0  0  0
   17.9633  -12.9838    6.9729 C   0  0  0  0  0  0  0  0  0  0  0  0
   20.2043  -13.2017    7.1150 C   0  0  0  0  0  0  0  0  0  0  0  0
   19.1690  -12.3645    7.0379 N   0  0  0  0  0  0  0  0  0  0  0  0
   19.5944  -14.8093    7.1081 S   0  0  0  0  0  0  0  0  0  0  0  0
   22.3319  -12.9048    6.1447 C   0  0  0  0  0  0  0  0  0  0  0  0
   21.4785  -12.7767    7.1890 N   0  0  0  0  0  0  0  0  0  0  0  0
   22.0284  -13.3933    5.0552 O   0  0  0  0  0  0  0  0  0  0  0  0
   21.7987  -12.3624    8.0227 H   0  0  0  0  0  0  0  0  0  0  0  0
   25.8957   -9.6050    6.6281 C   0  0  0  0  0  0  0  0  0  0  0  0
   24.9477  -14.5206    7.0580 C   0  0  0  0  0  0  0  0  0  0  0  0
   25.1540  -10.9437    6.6256 C   0  0  0  0  0  0  0  0  0  0  0  0
   24.7014  -13.0287    6.7877 C   0  0  0  0  0  0  0  0  0  0  0  0
   23.5666  -12.4182    6.4010 C   0  0  0  0  0  0  0  0  0  0  0  0
   25.6824  -12.1272    6.9278 N   0  0  0  0  0  0  0  0  0  0  0  0
   23.8623  -11.0669    6.2916 O   0  0  0  0  0  0  0  0  0  0  0  0
   16.6519  -12.1862    6.8634 C   0  0  0  0  0  0  0  0  0  0  0  0
   15.7308  -11.6615   11.6496 C   0  0  0  0  0  0  0  0  0  0  0  0
   12.0053  -11.6014    8.2963 C   0  0  0  0  0  0  0  0  0  0  0  0
   13.8545  -11.5948    9.9980 C   0  0  0  0  0  0  0  0  0  0  0  0
   16.1851  -12.0171    9.2108 C   0  0  0  0  0  0  0  0  0  0  0  0
   14.3767  -11.9152    7.6065 C   0  0  0  0  0  0  0  0  0  0  0  0
   15.1912  -12.2520   10.3440 C   0  0  0  0  0  0  0  0  0  0  0  0
   13.3560  -12.2106    8.6914 C   0  0  0  0  0  0  0  0  0  0  0  0
   15.6764  -12.5362    7.9169 N   0  0  0  0  0  0  0  0  0  0  0  0
 10 12  1  0  0  0
 12 15  2  0  0  0
 12 16  1  0  0  0
 15 13  1  0  0  0
 16 14  1  0  0  0
 13 14  2  0  0  0
 13 11  1  0  0  0
 14  6  1  0  0  0
  7  6  1  0  0  0
  7  3  1  0  0  0
  6  8  2  0  0  0
  4  3  2  0  0  0
  4  2  1  0  0  0
  3  5  1  0  0  0
 17  2  1  0  0  0
 17 25  1  0  0  0
 22 25  1  0  0  0
 22 24  1  0  0  0
  2  1  2  0  0  0
 19 24  1  0  0  0
 25 21  1  0  0  0
 24 20  1  0  0  0
  5  1  1  0  0  0
 21 23  1  0  0  0
 20 23  1  0  0  0
 23 18  1  0  0  0
  7  9  1  0  0  0
M  END
> <minimizedAffinity>
-6.48518

$$$$
6EKQ_B0H_A_801


 25 27  0  0  0  0  0  0  0  0999 V2000
   16.3160  -13.7498    6.1897 C   0  0  0  0  0  0  0  0  0  0  0  0
   16.8299  -13.0703    7.2255 C   0  0  0  0  0  0  0  0  0  0  0  0
   18.7661  -14.0340    6.5834 C   0  0  0  0  0  0  0  0  0  0  0  0
   18.1602  -13.2192    7.4482 N   0  0  0  0  0  0  0  0  0  0  0  0
   17.5851  -14.6129    5.4759 S   0  0  0  0  0  0  0  0  0  0  0  0
   20.9818  -13.3838    7.0564 C   0  0  0  0  0  0  0  0  0  0  0  0
   20.0817  -14.3080    6.6427 N   0  0  0  0  0  0  0  0  0  0  0  0
   20.6896  -12.2441    7.4215 O   0  0  0  0  0  0  0  0  0  0  0  0
   20.3983  -15.2022    6.3791 H   0  0  0  0  0  0  0  0  0  0  0  0
   24.8587  -16.0146    8.4247 C   0  0  0  0  0  0  0  0  0  0  0  0
   23.3930  -12.5193    5.1260 C   0  0  0  0  0  0  0  0  0  0  0  0
   23.9815  -15.0207    7.6598 C   0  0  0  0  0  0  0  0  0  0  0  0
   23.3101  -13.5289    6.2807 C   0  0  0  0  0  0  0  0  0  0  0  0
   22.2544  -13.8395    7.0547 C   0  0  0  0  0  0  0  0  0  0  0  0
   24.3764  -14.2521    6.6476 N   0  0  0  0  0  0  0  0  0  0  0  0
   22.6921  -14.8035    7.9518 O   0  0  0  0  0  0  0  0  0  0  0  0
   15.9616  -12.1573    8.1089 C   0  0  0  0  0  0  0  0  0  0  0  0
   15.7648  -10.3807   12.6736 C   0  0  0  0  0  0  0  0  0  0  0  0
   13.4645  -14.6737   11.4880 C   0  0  0  0  0  0  0  0  0  0  0  0
   14.5801  -12.5080   12.1050 C   0  0  0  0  0  0  0  0  0  0  0  0
   15.9346  -11.3396   10.3645 C   0  0  0  0  0  0  0  0  0  0  0  0
   14.7583  -13.3777    9.8015 C   0  0  0  0  0  0  0  0  0  0  0  0
   15.8334  -11.6699   11.8503 C   0  0  0  0  0  0  0  0  0  0  0  0
   14.6899  -13.7793   11.2644 C   0  0  0  0  0  0  0  0  0  0  0  0
   15.9575  -12.5660    9.5291 N   0  0  0  0  0  0  0  0  0  0  0  0
 10 12  1  0  0  0
 12 15  2  0  0  0
 12 16  1  0  0  0
 15 13  1  0  0  0
 16 14  1  0  0  0
 13 14  2  0  0  0
 13 11  1  0  0  0
 14  6  1  0  0  0
  7  6  1  0  0  0
  7  3  1  0  0  0
  6  8  2  0  0  0
  4  3  2  0  0  0
  4  2  1  0  0  0
  3  5  1  0  0  0
 17  2  1  0  0  0
 17 25  1  0  0  0
 22 25  1  0  0  0
 22 24  1  0  0  0
  2  1  2  0  0  0
 19 24  1  0  0  0
 25 21  1  0  0  0
 24 20  1  0  0  0
  5  1  1  0  0  0
 21 23  1  0  0  0
 20 23  1  0  0  0
 23 18  1  0  0  0
  7  9  1  0  0  0
M  END
> <minimizedAffinity>
-6.30251

$$$$
6EKQ_B0H_A_801


 25 27  0  0  0  0  0  0  0  0999 V2000
   18.3124  -12.5489    6.5922 C   0  0  0  0  0  0  0  0  0  0  0  0
   18.4968  -13.8076    7.0173 C   0  0  0  0  0  0  0  0  0  0  0  0
   16.5773  -13.4490    8.1473 C   0  0  0  0  0  0  0  0  0  0  0  0
   17.5599  -14.3052    7.8635 N   0  0  0  0  0  0  0  0  0  0  0  0
   16.8858  -11.9819    7.3054 S   0  0  0  0  0  0  0  0  0  0  0  0
   15.3944  -13.1398   10.1625 C   0  0  0  0  0  0  0  0  0  0  0  0
   15.5582  -13.7591    8.9688 N   0  0  0  0  0  0  0  0  0  0  0  0
   16.1310  -12.2499   10.5904 O   0  0  0  0  0  0  0  0  0  0  0  0
   14.9156  -14.4531    8.6958 H   0  0  0  0  0  0  0  0  0  0  0  0
   12.6705  -16.1071   12.9189 C   0  0  0  0  0  0  0  0  0  0  0  0
   12.5612  -11.6839   10.5378 C   0  0  0  0  0  0  0  0  0  0  0  0
   13.1033  -14.8985   12.0859 C   0  0  0  0  0  0  0  0  0  0  0  0
   13.1047  -13.0262   11.0501 C   0  0  0  0  0  0  0  0  0  0  0  0
   14.3150  -13.5780   10.8479 C   0  0  0  0  0  0  0  0  0  0  0  0
   12.3539  -13.8335   11.8111 N   0  0  0  0  0  0  0  0  0  0  0  0
   14.3114  -14.7942   11.5160 O   0  0  0  0  0  0  0  0  0  0  0  0
   19.6997  -14.6512    6.5598 C   0  0  0  0  0  0  0  0  0  0  0  0
   24.0775  -15.9032    8.3758 C   0  0  0  0  0  0  0  0  0  0  0  0
   23.6505  -12.1921    5.0334 C   0  0  0  0  0  0  0  0  0  0  0  0
   23.9004  -14.0692    6.6855 C   0  0  0  0  0  0  0  0  0  0  0  0
   21.8335  -15.1997    7.5099 C   0  0  0  0  0  0  0  0  0  0  0  0
   21.6626  -13.4512    5.8461 C   0  0  0  0  0  0  0  0  0  0  0  0
   23.2302  -14.7220    7.8950 C   0  0  0  0  0  0  0  0  0  0  0  0
   23.0222  -12.9010    6.2393 C   0  0  0  0  0  0  0  0  0  0  0  0
   20.9952  -14.0887    6.9947 N   0  0  0  0  0  0  0  0  0  0  0  0
 10 12  1  0  0  0
 12 15  2  0  0  0
 12 16  1  0  0  0
 15 13  1  0  0  0
 16 14  1  0  0  0
 13 14  2  0  0  0
 13 11  1  0  0  0
 14  6  1  0  0  0
  7  6  1  0  0  0
  7  3  1  0  0  0
  6  8  2  0  0  0
  4  3  2  0  0  0
  4  2  1  0  0  0
  3  5  1  0  0  0
 17  2  1  0  0  0
 17 25  1  0  0  0
 22 25  1  0  0  0
 22 24  1  0  0  0
  2  1  2  0  0  0
 19 24  1  0  0  0
 25 21  1  0  0  0
 24 20  1  0  0  0
  5  1  1  0  0  0
 21 23  1  0  0  0
 20 23  1  0  0  0
 23 18  1  0  0  0
  7  9  1  0  0  0
M  END
> <minimizedAffinity>
-6.29542

$$$$
6EKQ_B0H_A_801


 25 27  0  0  0  0  0  0  0  0999 V2000
   23.6870  -13.8608    6.5701 C   0  0  0  0  0  0  0  0  0  0  0  0
   22.9245  -14.5775    7.4090 C   0  0  0  0  0  0  0  0  0  0  0  0
   21.2688  -13.2417    6.6580 C   0  0  0  0  0  0  0  0  0  0  0  0
   21.6094  -14.2478    7.4646 N   0  0  0  0  0  0  0  0  0  0  0  0
   22.6807  -12.7209    5.8264 S   0  0  0  0  0  0  0  0  0  0  0  0
   19.5216  -11.8898    7.4799 C   0  0  0  0  0  0  0  0  0  0  0  0
   20.0115  -12.7709    6.5748 N   0  0  0  0  0  0  0  0  0  0  0  0
   20.1653  -11.4371    8.4277 O   0  0  0  0  0  0  0  0  0  0  0  0
   19.4330  -13.0740    5.8381 H   0  0  0  0  0  0  0  0  0  0  0  0
   15.7924   -9.0144    6.1960 C   0  0  0  0  0  0  0  0  0  0  0  0
   16.8678  -13.6717    7.7452 C   0  0  0  0  0  0  0  0  0  0  0  0
   16.5808  -10.2447    6.6510 C   0  0  0  0  0  0  0  0  0  0  0  0
   17.0898  -12.2128    7.3186 C   0  0  0  0  0  0  0  0  0  0  0  0
   18.2434  -11.5257    7.2332 C   0  0  0  0  0  0  0  0  0  0  0  0
   16.0626  -11.4305    6.9618 N   0  0  0  0  0  0  0  0  0  0  0  0
   17.9117  -10.2482    6.8048 O   0  0  0  0  0  0  0  0  0  0  0  0
   23.5050  -15.7241    8.2554 C   0  0  0  0  0  0  0  0  0  0  0  0
   24.6085  -20.4907    8.5603 C   0  0  0  0  0  0  0  0  0  0  0  0
   19.8383  -18.9701    8.3169 C   0  0  0  0  0  0  0  0  0  0  0  0
   22.2184  -19.7611    8.4730 C   0  0  0  0  0  0  0  0  0  0  0  0
   24.0401  -18.0622    8.3157 C   0  0  0  0  0  0  0  0  0  0  0  0
   21.7281  -17.3503    8.2692 C   0  0  0  0  0  0  0  0  0  0  0  0
   23.6285  -19.4849    7.9500 C   0  0  0  0  0  0  0  0  0  0  0  0
   21.2774  -18.7360    7.8419 C   0  0  0  0  0  0  0  0  0  0  0  0
   23.0868  -17.0591    7.7793 N   0  0  0  0  0  0  0  0  0  0  0  0
 10 12  1  0  0  0
 12 15  2  0  0  0
 12 16  1  0  0  0
 15 13  1  0  0  0
 16 14  1  0  0  0
 13 14  2  0  0  0
 13 11  1  0  0  0
 14  6  1  0  0  0
  7  6  1  0  0  0
  7  3  1  0  0  0
  6  8  2  0  0  0
  4  3  2  0  0  0
  4  2  1  0  0  0
  3  5  1  0  0  0
 17  2  1  0  0  0
 17 25  1  0  0  0
 22 25  1  0  0  0
 22 24  1  0  0  0
  2  1  2  0  0  0
 19 24  1  0  0  0
 25 21  1  0  0  0
 24 20  1  0  0  0
  5  1  1  0  0  0
 21 23  1  0  0  0
 20 23  1  0  0  0
 23 18  1  0  0  0
  7  9  1  0  0  0
M  END
> <minimizedAffinity>
-6.28689

$$$$
6EKQ_B0H_A_801


 25 27  0  0  0  0  0  0  0  0999 V2000
   16.2912  -14.8710    6.1374 C   0  0  0  0  0  0  0  0  0  0  0  0
   16.5900  -14.4658    7.3805 C   0  0  0  0  0  0  0  0  0  0  0  0
   18.7165  -14.8531    6.7342 C   0  0  0  0  0  0  0  0  0  0  0  0
   17.9051  -14.4538    7.7146 N   0  0  0  0  0  0  0  0  0  0  0  0
   17.7504  -15.2522    5.3690 S   0  0  0  0  0  0  0  0  0  0  0  0
   20.8282  -13.8060    6.7567 C   0  0  0  0  0  0  0  0  0  0  0  0
   20.0530  -14.9107    6.8754 N   0  0  0  0  0  0  0  0  0  0  0  0
   20.3958  -12.6748    6.5306 O   0  0  0  0  0  0  0  0  0  0  0  0
   20.4783  -15.7771    7.0697 H   0  0  0  0  0  0  0  0  0  0  0  0
   24.8492  -15.7655    8.7097 C   0  0  0  0  0  0  0  0  0  0  0  0
   23.3104  -12.6119    5.1134 C   0  0  0  0  0  0  0  0  0  0  0  0
   23.9380  -14.9378    7.8005 C   0  0  0  0  0  0  0  0  0  0  0  0
   23.2326  -13.5984    6.2883 C   0  0  0  0  0  0  0  0  0  0  0  0
   22.1447  -14.0556    6.9345 C   0  0  0  0  0  0  0  0  0  0  0  0
   24.3396  -14.1372    6.8161 N   0  0  0  0  0  0  0  0  0  0  0  0
   22.6035  -14.9203    7.9179 O   0  0  0  0  0  0  0  0  0  0  0  0
   15.5014  -14.0235    8.3741 C   0  0  0  0  0  0  0  0  0  0  0  0
   17.3618   -9.7665    6.8097 C   0  0  0  0  0  0  0  0  0  0  0  0
   12.4305  -10.6425    6.6066 C   0  0  0  0  0  0  0  0  0  0  0  0
   14.9011  -10.1867    6.6656 C   0  0  0  0  0  0  0  0  0  0  0  0
   16.3947  -11.9048    7.6887 C   0  0  0  0  0  0  0  0  0  0  0  0
   14.0191  -12.3299    7.5159 C   0  0  0  0  0  0  0  0  0  0  0  0
   16.1590  -10.4087    7.5062 C   0  0  0  0  0  0  0  0  0  0  0  0
   13.7302  -10.8440    7.3950 C   0  0  0  0  0  0  0  0  0  0  0  0
   15.2294  -12.5719    8.3206 N   0  0  0  0  0  0  0  0  0  0  0  0
 10 12  1  0  0  0
 12 15  2  0  0  0
 12 16  1  0  0  0
 15 13  1  0  0  0
 16 14  1  0  0  0
 13 14  2  0  0  0
 13 11  1  0  0  0
 14  6  1  0  0  0
  7  6  1  0  0  0
  7  3  1  0  0  0
  6  8  2  0  0  0
  4  3  2  0  0  0
  4  2  1  0  0  0
  3  5  1  0  0  0
 17  2  1  0  0  0
 17 25  1  0  0  0
 22 25  1  0  0  0
 22 24  1  0  0  0
  2  1  2  0  0  0
 19 24  1  0  0  0
 25 21  1  0  0  0
 24 20  1  0  0  0
  5  1  1  0  0  0
 21 23  1  0  0  0
 20 23  1  0  0  0
 23 18  1  0  0  0
  7  9  1  0  0  0
M  END
> <minimizedAffinity>
-6.24279

$$$$
6EKQ_B0H_A_801


 25 27  0  0  0  0  0  0  0  0999 V2000
   15.8259  -10.3757    7.5978 C   0  0  0  0  0  0  0  0  0  0  0  0
   15.8971  -11.5146    8.3026 C   0  0  0  0  0  0  0  0  0  0  0  0
   18.0345  -11.5419    7.5812 C   0  0  0  0  0  0  0  0  0  0  0  0
   17.0928  -12.1561    8.2987 N   0  0  0  0  0  0  0  0  0  0  0  0
   17.3479  -10.1189    6.9030 S   0  0  0  0  0  0  0  0  0  0  0  0
   19.5342  -13.1838    6.7994 C   0  0  0  0  0  0  0  0  0  0  0  0
   19.2835  -12.0255    7.4559 N   0  0  0  0  0  0  0  0  0  0  0  0
   18.6713  -13.8761    6.2575 O   0  0  0  0  0  0  0  0  0  0  0  0
   20.0339  -11.5254    7.8509 H   0  0  0  0  0  0  0  0  0  0  0  0
   24.2455  -12.9215    5.5512 C   0  0  0  0  0  0  0  0  0  0  0  0
   21.0251  -15.5433    8.3799 C   0  0  0  0  0  0  0  0  0  0  0  0
   22.9499  -13.3850    6.2210 C   0  0  0  0  0  0  0  0  0  0  0  0
   21.5378  -14.4740    7.4035 C   0  0  0  0  0  0  0  0  0  0  0  0
   20.8460  -13.5087    6.7713 C   0  0  0  0  0  0  0  0  0  0  0  0
   22.8331  -14.4037    7.0695 N   0  0  0  0  0  0  0  0  0  0  0  0
   21.7618  -12.8061    6.0010 O   0  0  0  0  0  0  0  0  0  0  0  0
   14.6914  -12.0607    9.0874 C   0  0  0  0  0  0  0  0  0  0  0  0
   11.6051  -11.7704   12.8850 C   0  0  0  0  0  0  0  0  0  0  0  0
   16.5261  -11.0542   13.5153 C   0  0  0  0  0  0  0  0  0  0  0  0
   14.0587  -11.4402   13.2365 C   0  0  0  0  0  0  0  0  0  0  0  0
   13.1772  -11.8302   10.9342 C   0  0  0  0  0  0  0  0  0  0  0  0
   15.5559  -11.5489   11.2767 C   0  0  0  0  0  0  0  0  0  0  0  0
   12.8877  -11.1862   12.2865 C   0  0  0  0  0  0  0  0  0  0  0  0
   15.3137  -10.8447   12.6001 C   0  0  0  0  0  0  0  0  0  0  0  0
   14.4395  -11.3218   10.3422 N   0  0  0  0  0  0  0  0  0  0  0  0
 10 12  1  0  0  0
 12 15  2  0  0  0
 12 16  1  0  0  0
 15 13  1  0  0  0
 16 14  1  0  0  0
 13 14  2  0  0  0
 13 11  1  0  0  0
 14  6  1  0  0  0
  7  6  1  0  0  0
  7  3  1  0  0  0
  6  8  2  0  0  0
  4  3  2  0  0  0
  4  2  1  0  0  0
  3  5  1  0  0  0
 17  2  1  0  0  0
 17 25  1  0  0  0
 22 25  1  0  0  0
 22 24  1  0  0  0
  2  1  2  0  0  0
 19 24  1  0  0  0
 25 21  1  0  0  0
 24 20  1  0  0  0
  5  1  1  0  0  0
 21 23  1  0  0  0
 20 23  1  0  0  0
 23 18  1  0  0  0
  7  9  1  0  0  0
M  END
> <minimizedAffinity>
-6.22869

$$$$
