4E6Q_0NV_A_1201


 26 30  0  0  0  0  0  0  0  0999 V2000
   10.7375   26.7183    9.0453 C   0  0  0  0  0  0  0  0  0  0  0  0
   10.6539   25.4511    8.1736 C   0  0  0  0  0  0  0  0  0  0  0  0
   11.0895   25.7070    6.7769 N   0  0  0  0  0  0  0  0  0  0  0  0
   12.4608   26.2225    6.7321 C   0  0  0  0  0  0  0  0  0  0  0  0
   12.6151   27.5528    7.5199 C   0  0  0  0  0  0  0  0  0  0  0  0
   12.1917   27.1855    8.9504 C   0  0  0  0  0  0  0  0  0  0  0  0
   12.4181   28.3452    9.7914 N   0  0  0  0  0  0  0  0  0  0  0  0
   12.5856   29.6291    9.3339 C   0  0  0  0  0  0  0  0  0  0  0  0
   12.7575   30.4379   10.3258 N   0  0  0  0  0  0  0  0  0  0  0  0
   12.7239   29.7423   11.4984 C   0  0  0  0  0  0  0  0  0  0  0  0
   12.8609   30.0852   12.8445 C   0  0  0  0  0  0  0  0  0  0  0  0
   12.7523   29.1957   13.7934 N   0  0  0  0  0  0  0  0  0  0  0  0
   12.5163   27.9082   13.5559 C   0  0  0  0  0  0  0  0  0  0  0  0
   12.3956   26.8343   14.3897 N   0  0  0  0  0  0  0  0  0  0  0  0
   12.1905   25.7023   13.6260 C   0  0  0  0  0  0  0  0  0  0  0  0
   12.1354   25.9877   12.3182 C   0  0  0  0  0  0  0  0  0  0  0  0
   12.3671   27.4427   12.2330 C   0  0  0  0  0  0  0  0  0  0  0  0
   12.4739   28.3714   11.1731 C   0  0  0  0  0  0  0  0  0  0  0  0
   12.4464   26.8622   15.3725 H   0  0  0  0  0  0  0  0  0  0  0  0
   11.0291   24.4713    5.9366 C   0  0  0  0  0  0  0  0  0  0  0  0
    9.7810   23.6333    6.2109 C   0  0  0  0  0  0  0  0  0  0  0  0
    8.5011   24.1756    6.0440 C   0  0  0  0  0  0  0  0  0  0  0  0
    7.3501   23.4428    6.2739 C   0  0  0  0  0  0  0  0  0  0  0  0
    7.5139   22.1351    6.6995 C   0  0  0  0  0  0  0  0  0  0  0  0
    8.7774   21.5788    6.8706 C   0  0  0  0  0  0  0  0  0  0  0  0
    9.9215   22.3186    6.6339 C   0  0  0  0  0  0  0  0  0  0  0  0
 14 15  1  0  0  0
 14 13  1  0  0  0
 12 13  2  0  0  0
 12 11  1  0  0  0
 15 16  2  0  0  0
 13 17  1  0  0  0
 11 10  2  0  0  0
 16 17  1  0  0  0
 17 18  2  0  0  0
 10 18  1  0  0  0
 10  9  1  0  0  0
 18  7  1  0  0  0
  9  8  2  0  0  0
  7  8  1  0  0  0
  7  6  1  0  0  0
  6  1  1  0  0  0
  6  5  1  0  0  0
  1  2  1  0  0  0
  2  3  1  0  0  0
  5  4  1  0  0  0
  4  3  1  0  0  0
 22 23  2  0  0  0
 22 21  1  0  0  0
  3 20  1  0  0  0
 23 24  1  0  0  0
 20 21  1  0  0  0
 21 26  2  0  0  0
 24 25  2  0  0  0
 26 25  1  0  0  0
 14 19  1  0  0  0
M  END
> <minimizedAffinity>
-9.82099

$$$$
4E6Q_0NV_A_1201


 26 30  0  0  0  0  0  0  0  0999 V2000
   10.7597   26.7377    8.3466 C   0  0  0  0  0  0  0  0  0  0  0  0
   10.4479   25.3055    7.8732 C   0  0  0  0  0  0  0  0  0  0  0  0
   11.6677   24.5935    7.4138 N   0  0  0  0  0  0  0  0  0  0  0  0
   12.6797   24.5321    8.4722 C   0  0  0  0  0  0  0  0  0  0  0  0
   13.1165   25.9443    8.9510 C   0  0  0  0  0  0  0  0  0  0  0  0
   11.8114   26.5852    9.4479 C   0  0  0  0  0  0  0  0  0  0  0  0
   12.1426   27.8723   10.0284 N   0  0  0  0  0  0  0  0  0  0  0  0
   12.2638   29.0457    9.3253 C   0  0  0  0  0  0  0  0  0  0  0  0
   12.5562   30.0170   10.1244 N   0  0  0  0  0  0  0  0  0  0  0  0
   12.6558   29.5489   11.4014 C   0  0  0  0  0  0  0  0  0  0  0  0
   12.9520   30.1282   12.6364 C   0  0  0  0  0  0  0  0  0  0  0  0
   12.9495   29.4306   13.7394 N   0  0  0  0  0  0  0  0  0  0  0  0
   12.6787   28.1286   13.7727 C   0  0  0  0  0  0  0  0  0  0  0  0
   12.6496   27.2291   14.7989 N   0  0  0  0  0  0  0  0  0  0  0  0
   12.3487   25.9827   14.2861 C   0  0  0  0  0  0  0  0  0  0  0  0
   12.1426   26.0256   12.9630 C   0  0  0  0  0  0  0  0  0  0  0  0
   12.3724   27.4334   12.5844 C   0  0  0  0  0  0  0  0  0  0  0  0
   12.3602   28.1492   11.3660 C   0  0  0  0  0  0  0  0  0  0  0  0
   12.8155   27.4348   15.7472 H   0  0  0  0  0  0  0  0  0  0  0  0
   11.3679   23.1956    6.9750 C   0  0  0  0  0  0  0  0  0  0  0  0
    9.9194   23.0190    6.5210 C   0  0  0  0  0  0  0  0  0  0  0  0
    8.9721   22.4194    7.3596 C   0  0  0  0  0  0  0  0  0  0  0  0
    7.6506   22.2526    6.9846 C   0  0  0  0  0  0  0  0  0  0  0  0
    7.2974   22.6928    5.7200 C   0  0  0  0  0  0  0  0  0  0  0  0
    8.2245   23.2913    4.8729 C   0  0  0  0  0  0  0  0  0  0  0  0
    9.5419   23.4572    5.2590 C   0  0  0  0  0  0  0  0  0  0  0  0
 14 15  1  0  0  0
 14 13  1  0  0  0
 12 13  2  0  0  0
 12 11  1  0  0  0
 15 16  2  0  0  0
 13 17  1  0  0  0
 11 10  2  0  0  0
 16 17  1  0  0  0
 17 18  2  0  0  0
 10 18  1  0  0  0
 10  9  1  0  0  0
 18  7  1  0  0  0
  9  8  2  0  0  0
  7  8  1  0  0  0
  7  6  1  0  0  0
  6  1  1  0  0  0
  6  5  1  0  0  0
  1  2  1  0  0  0
  2  3  1  0  0  0
  5  4  1  0  0  0
  4  3  1  0  0  0
 22 23  2  0  0  0
 22 21  1  0  0  0
  3 20  1  0  0  0
 23 24  1  0  0  0
 20 21  1  0  0  0
 21 26  2  0  0  0
 24 25  2  0  0  0
 26 25  1  0  0  0
 14 19  1  0  0  0
M  END
> <minimizedAffinity>
-9.68462

$$$$
4E6Q_0NV_A_1201


 26 30  0  0  0  0  0  0  0  0999 V2000
   11.6057   24.5413    9.9750 C   0  0  0  0  0  0  0  0  0  0  0  0
   11.5360   24.3387    8.4497 C   0  0  0  0  0  0  0  0  0  0  0  0
   10.5425   25.2410    7.8135 N   0  0  0  0  0  0  0  0  0  0  0  0
   10.8459   26.6480    8.0905 C   0  0  0  0  0  0  0  0  0  0  0  0
   10.8516   26.9598    9.6127 C   0  0  0  0  0  0  0  0  0  0  0  0
   11.9309   26.0230   10.1769 C   0  0  0  0  0  0  0  0  0  0  0  0
   12.0920   26.3298   11.5853 N   0  0  0  0  0  0  0  0  0  0  0  0
   11.9914   25.4174   12.6066 C   0  0  0  0  0  0  0  0  0  0  0  0
   12.1951   25.9951   13.7433 N   0  0  0  0  0  0  0  0  0  0  0  0
   12.4336   27.3237   13.5486 C   0  0  0  0  0  0  0  0  0  0  0  0
   12.6976   28.4049   14.3911 C   0  0  0  0  0  0  0  0  0  0  0  0
   12.9232   29.6014   13.9212 N   0  0  0  0  0  0  0  0  0  0  0  0
   12.9095   29.8838   12.6213 C   0  0  0  0  0  0  0  0  0  0  0  0
   13.0914   31.0524   11.9400 N   0  0  0  0  0  0  0  0  0  0  0  0
   12.9337   30.8067   10.5903 C   0  0  0  0  0  0  0  0  0  0  0  0
   12.6883   29.5126   10.3456 C   0  0  0  0  0  0  0  0  0  0  0  0
   12.6461   28.8722   11.6746 C   0  0  0  0  0  0  0  0  0  0  0  0
   12.3990   27.5601   12.1377 C   0  0  0  0  0  0  0  0  0  0  0  0
   13.3004   31.9257   12.3438 H   0  0  0  0  0  0  0  0  0  0  0  0
   10.4910   25.0595    6.3299 C   0  0  0  0  0  0  0  0  0  0  0  0
    9.4482   24.0290    5.8989 C   0  0  0  0  0  0  0  0  0  0  0  0
    8.3317   23.7591    6.6994 C   0  0  0  0  0  0  0  0  0  0  0  0
    7.3636   22.8399    6.3352 C   0  0  0  0  0  0  0  0  0  0  0  0
    7.5521   22.1723    5.1367 C   0  0  0  0  0  0  0  0  0  0  0  0
    8.6548   22.4273    4.3277 C   0  0  0  0  0  0  0  0  0  0  0  0
    9.6145   23.3511    4.6988 C   0  0  0  0  0  0  0  0  0  0  0  0
 14 15  1  0  0  0
 14 13  1  0  0  0
 12 13  2  0  0  0
 12 11  1  0  0  0
 15 16  2  0  0  0
 13 17  1  0  0  0
 11 10  2  0  0  0
 16 17  1  0  0  0
 17 18  2  0  0  0
 10 18  1  0  0  0
 10  9  1  0  0  0
 18  7  1  0  0  0
  9  8  2  0  0  0
  7  8  1  0  0  0
  7  6  1  0  0  0
  6  1  1  0  0  0
  6  5  1  0  0  0
  1  2  1  0  0  0
  2  3  1  0  0  0
  5  4  1  0  0  0
  4  3  1  0  0  0
 22 23  2  0  0  0
 22 21  1  0  0  0
  3 20  1  0  0  0
 23 24  1  0  0  0
 20 21  1  0  0  0
 21 26  2  0  0  0
 24 25  2  0  0  0
 26 25  1  0  0  0
 14 19  1  0  0  0
M  END
> <minimizedAffinity>
-9.67090

$$$$
4E6Q_0NV_A_1201


 26 30  0  0  0  0  0  0  0  0999 V2000
   12.0589   24.4063    8.1089 C   0  0  0  0  0  0  0  0  0  0  0  0
   12.0345   24.5624    9.6410 C   0  0  0  0  0  0  0  0  0  0  0  0
   12.0670   25.9883   10.0556 N   0  0  0  0  0  0  0  0  0  0  0  0
   10.9417   26.7349    9.4859 C   0  0  0  0  0  0  0  0  0  0  0  0
   10.9392   26.7007    7.9325 C   0  0  0  0  0  0  0  0  0  0  0  0
   10.8572   25.2036    7.5968 C   0  0  0  0  0  0  0  0  0  0  0  0
   10.7290   25.0784    6.1575 N   0  0  0  0  0  0  0  0  0  0  0  0
   11.4769   25.7705    5.2371 C   0  0  0  0  0  0  0  0  0  0  0  0
   11.1344   25.4331    4.0387 N   0  0  0  0  0  0  0  0  0  0  0  0
   10.1353   24.5061    4.0889 C   0  0  0  0  0  0  0  0  0  0  0  0
    9.3912   23.8156    3.1308 C   0  0  0  0  0  0  0  0  0  0  0  0
    8.4879   22.9357    3.4673 N   0  0  0  0  0  0  0  0  0  0  0  0
    8.2014   22.6388    4.7320 C   0  0  0  0  0  0  0  0  0  0  0  0
    7.2917   21.7844    5.2845 N   0  0  0  0  0  0  0  0  0  0  0  0
    7.3720   21.8815    6.6597 C   0  0  0  0  0  0  0  0  0  0  0  0
    8.3245   22.7423    7.0427 C   0  0  0  0  0  0  0  0  0  0  0  0
    8.8840   23.2792    5.7870 C   0  0  0  0  0  0  0  0  0  0  0  0
    9.8730   24.2374    5.4698 C   0  0  0  0  0  0  0  0  0  0  0  0
    6.6797   21.1964    4.7855 H   0  0  0  0  0  0  0  0  0  0  0  0
   12.0210   26.1399   11.5427 C   0  0  0  0  0  0  0  0  0  0  0  0
   12.3448   27.5617   11.9997 C   0  0  0  0  0  0  0  0  0  0  0  0
   12.5916   28.5769   11.0676 C   0  0  0  0  0  0  0  0  0  0  0  0
   12.8779   29.8767   11.4460 C   0  0  0  0  0  0  0  0  0  0  0  0
   12.9294   30.1371   12.8052 C   0  0  0  0  0  0  0  0  0  0  0  0
   12.6867   29.1417   13.7462 C   0  0  0  0  0  0  0  0  0  0  0  0
   12.3970   27.8466   13.3574 C   0  0  0  0  0  0  0  0  0  0  0  0
 14 15  1  0  0  0
 14 13  1  0  0  0
 12 13  2  0  0  0
 12 11  1  0  0  0
 15 16  2  0  0  0
 13 17  1  0  0  0
 11 10  2  0  0  0
 16 17  1  0  0  0
 17 18  2  0  0  0
 10 18  1  0  0  0
 10  9  1  0  0  0
 18  7  1  0  0  0
  9  8  2  0  0  0
  7  8  1  0  0  0
  7  6  1  0  0  0
  6  1  1  0  0  0
  6  5  1  0  0  0
  1  2  1  0  0  0
  2  3  1  0  0  0
  5  4  1  0  0  0
  4  3  1  0  0  0
 22 23  2  0  0  0
 22 21  1  0  0  0
  3 20  1  0  0  0
 23 24  1  0  0  0
 20 21  1  0  0  0
 21 26  2  0  0  0
 24 25  2  0  0  0
 26 25  1  0  0  0
 14 19  1  0  0  0
M  END
> <minimizedAffinity>
-9.28752

$$$$
4E6Q_0NV_A_1201


 26 30  0  0  0  0  0  0  0  0999 V2000
   10.8087   27.0376    9.4236 C   0  0  0  0  0  0  0  0  0  0  0  0
   10.6202   26.5864    7.9630 C   0  0  0  0  0  0  0  0  0  0  0  0
   11.9153   26.4682    7.2456 N   0  0  0  0  0  0  0  0  0  0  0  0
   12.8139   25.5265    7.9194 C   0  0  0  0  0  0  0  0  0  0  0  0
   13.1270   25.9547    9.3799 C   0  0  0  0  0  0  0  0  0  0  0  0
   11.7468   26.0054   10.0532 C   0  0  0  0  0  0  0  0  0  0  0  0
   11.9508   26.2834   11.4620 N   0  0  0  0  0  0  0  0  0  0  0  0
   11.8471   25.3573   12.4706 C   0  0  0  0  0  0  0  0  0  0  0  0
   12.0953   25.9094   13.6111 N   0  0  0  0  0  0  0  0  0  0  0  0
   12.3694   27.2333   13.4321 C   0  0  0  0  0  0  0  0  0  0  0  0
   12.6862   28.2918   14.2852 C   0  0  0  0  0  0  0  0  0  0  0  0
   12.9367   29.4887   13.8294 N   0  0  0  0  0  0  0  0  0  0  0  0
   12.9004   29.7933   12.5349 C   0  0  0  0  0  0  0  0  0  0  0  0
   13.1014   30.9673   11.8683 N   0  0  0  0  0  0  0  0  0  0  0  0
   12.9041   30.7492   10.5191 C   0  0  0  0  0  0  0  0  0  0  0  0
   12.6136   29.4673   10.2596 C   0  0  0  0  0  0  0  0  0  0  0  0
   12.5839   28.8061   11.5787 C   0  0  0  0  0  0  0  0  0  0  0  0
   12.3082   27.4945   12.0265 C   0  0  0  0  0  0  0  0  0  0  0  0
   13.3464   31.8269   12.2809 H   0  0  0  0  0  0  0  0  0  0  0  0
   11.7333   26.0089    5.8341 C   0  0  0  0  0  0  0  0  0  0  0  0
   12.3816   26.9508    4.8203 C   0  0  0  0  0  0  0  0  0  0  0  0
   12.0682   26.8658    3.4585 C   0  0  0  0  0  0  0  0  0  0  0  0
   12.6288   27.7087    2.5151 C   0  0  0  0  0  0  0  0  0  0  0  0
   13.5407   28.6447    2.9736 C   0  0  0  0  0  0  0  0  0  0  0  0
   13.8644   28.7445    4.3228 C   0  0  0  0  0  0  0  0  0  0  0  0
   13.2951   27.9000    5.2583 C   0  0  0  0  0  0  0  0  0  0  0  0
 14 15  1  0  0  0
 14 13  1  0  0  0
 12 13  2  0  0  0
 12 11  1  0  0  0
 15 16  2  0  0  0
 13 17  1  0  0  0
 11 10  2  0  0  0
 16 17  1  0  0  0
 17 18  2  0  0  0
 10 18  1  0  0  0
 10  9  1  0  0  0
 18  7  1  0  0  0
  9  8  2  0  0  0
  7  8  1  0  0  0
  7  6  1  0  0  0
  6  1  1  0  0  0
  6  5  1  0  0  0
  1  2  1  0  0  0
  2  3  1  0  0  0
  5  4  1  0  0  0
  4  3  1  0  0  0
 22 23  2  0  0  0
 22 21  1  0  0  0
  3 20  1  0  0  0
 23 24  1  0  0  0
 20 21  1  0  0  0
 21 26  2  0  0  0
 24 25  2  0  0  0
 26 25  1  0  0  0
 14 19  1  0  0  0
M  END
> <minimizedAffinity>
-9.20769

$$$$
4E6Q_0NV_A_1201


 26 30  0  0  0  0  0  0  0  0999 V2000
   10.1871   25.8916    8.1841 C   0  0  0  0  0  0  0  0  0  0  0  0
   10.8267   27.2269    8.6089 C   0  0  0  0  0  0  0  0  0  0  0  0
   12.2253   27.0500    9.0765 N   0  0  0  0  0  0  0  0  0  0  0  0
   13.0597   26.4340    8.0408 C   0  0  0  0  0  0  0  0  0  0  0  0
   12.5308   25.0371    7.6130 C   0  0  0  0  0  0  0  0  0  0  0  0
   11.1091   25.3212    7.1041 C   0  0  0  0  0  0  0  0  0  0  0  0
   10.5745   24.0838    6.5685 N   0  0  0  0  0  0  0  0  0  0  0  0
   10.4498   22.9105    7.2710 C   0  0  0  0  0  0  0  0  0  0  0  0
    9.9318   21.9947    6.5225 N   0  0  0  0  0  0  0  0  0  0  0  0
    9.6898   22.4988    5.2786 C   0  0  0  0  0  0  0  0  0  0  0  0
    9.1662   21.9759    4.0950 C   0  0  0  0  0  0  0  0  0  0  0  0
    9.0141   22.7121    3.0281 N   0  0  0  0  0  0  0  0  0  0  0  0
    9.3509   23.9983    2.9813 C   0  0  0  0  0  0  0  0  0  0  0  0
    9.2971   24.9190    1.9752 N   0  0  0  0  0  0  0  0  0  0  0  0
    9.8103   26.1134    2.4408 C   0  0  0  0  0  0  0  0  0  0  0  0
   10.1712   26.0315    3.7285 C   0  0  0  0  0  0  0  0  0  0  0  0
    9.8976   24.6339    4.1154 C   0  0  0  0  0  0  0  0  0  0  0  0
   10.0776   23.8761    5.2946 C   0  0  0  0  0  0  0  0  0  0  0  0
    8.9499   24.7582    1.0681 H   0  0  0  0  0  0  0  0  0  0  0  0
   12.8531   28.3497    9.4679 C   0  0  0  0  0  0  0  0  0  0  0  0
   12.7497   28.6254   10.9674 C   0  0  0  0  0  0  0  0  0  0  0  0
   12.3911   27.6092   11.8613 C   0  0  0  0  0  0  0  0  0  0  0  0
   12.2974   27.8213   13.2254 C   0  0  0  0  0  0  0  0  0  0  0  0
   12.5592   29.1029   13.6801 C   0  0  0  0  0  0  0  0  0  0  0  0
   12.9173   30.1253   12.8074 C   0  0  0  0  0  0  0  0  0  0  0  0
   13.0123   29.9018   11.4460 C   0  0  0  0  0  0  0  0  0  0  0  0
 14 15  1  0  0  0
 14 13  1  0  0  0
 12 13  2  0  0  0
 12 11  1  0  0  0
 15 16  2  0  0  0
 13 17  1  0  0  0
 11 10  2  0  0  0
 16 17  1  0  0  0
 17 18  2  0  0  0
 10 18  1  0  0  0
 10  9  1  0  0  0
 18  7  1  0  0  0
  9  8  2  0  0  0
  7  8  1  0  0  0
  7  6  1  0  0  0
  6  1  1  0  0  0
  6  5  1  0  0  0
  1  2  1  0  0  0
  2  3  1  0  0  0
  5  4  1  0  0  0
  4  3  1  0  0  0
 22 23  2  0  0  0
 22 21  1  0  0  0
  3 20  1  0  0  0
 23 24  1  0  0  0
 20 21  1  0  0  0
 21 26  2  0  0  0
 24 25  2  0  0  0
 26 25  1  0  0  0
 14 19  1  0  0  0
M  END
> <minimizedAffinity>
-9.04905

$$$$
4E6Q_0NV_A_1201


 26 30  0  0  0  0  0  0  0  0999 V2000
   10.6492   27.0047    8.9790 C   0  0  0  0  0  0  0  0  0  0  0  0
   10.5092   25.7352    8.1180 C   0  0  0  0  0  0  0  0  0  0  0  0
   11.2160   25.8638    6.8181 N   0  0  0  0  0  0  0  0  0  0  0  0
   12.6405   26.1493    7.0118 C   0  0  0  0  0  0  0  0  0  0  0  0
   12.8742   27.4665    7.8021 C   0  0  0  0  0  0  0  0  0  0  0  0
   12.1549   27.2272    9.1385 C   0  0  0  0  0  0  0  0  0  0  0  0
   12.4212   28.3666    9.9956 N   0  0  0  0  0  0  0  0  0  0  0  0
   12.6099   29.6544    9.5576 C   0  0  0  0  0  0  0  0  0  0  0  0
   12.8163   30.4414   10.5603 N   0  0  0  0  0  0  0  0  0  0  0  0
   12.7865   29.7261   11.7211 C   0  0  0  0  0  0  0  0  0  0  0  0
   12.9534   30.0419   13.0705 C   0  0  0  0  0  0  0  0  0  0  0  0
   12.8407   29.1384   14.0054 N   0  0  0  0  0  0  0  0  0  0  0  0
   12.5719   27.8608   13.7497 C   0  0  0  0  0  0  0  0  0  0  0  0
   12.4410   26.7753   14.5667 N   0  0  0  0  0  0  0  0  0  0  0  0
   12.1978   25.6618   13.7870 C   0  0  0  0  0  0  0  0  0  0  0  0
   12.1275   25.9715   12.4854 C   0  0  0  0  0  0  0  0  0  0  0  0
   12.3904   27.4223   12.4216 C   0  0  0  0  0  0  0  0  0  0  0  0
   12.5004   28.3670   11.3764 C   0  0  0  0  0  0  0  0  0  0  0  0
   12.5087   26.7846   15.5488 H   0  0  0  0  0  0  0  0  0  0  0  0
   11.0982   24.6228    5.9918 C   0  0  0  0  0  0  0  0  0  0  0  0
   10.6682   24.9115    4.5542 C   0  0  0  0  0  0  0  0  0  0  0  0
    9.7486   24.0831    3.8997 C   0  0  0  0  0  0  0  0  0  0  0  0
    9.3300   24.3204    2.6023 C   0  0  0  0  0  0  0  0  0  0  0  0
    9.8771   25.4172    1.9577 C   0  0  0  0  0  0  0  0  0  0  0  0
   10.7917   26.2519    2.5917 C   0  0  0  0  0  0  0  0  0  0  0  0
   11.2003   26.0084    3.8901 C   0  0  0  0  0  0  0  0  0  0  0  0
 14 15  1  0  0  0
 14 13  1  0  0  0
 12 13  2  0  0  0
 12 11  1  0  0  0
 15 16  2  0  0  0
 13 17  1  0  0  0
 11 10  2  0  0  0
 16 17  1  0  0  0
 17 18  2  0  0  0
 10 18  1  0  0  0
 10  9  1  0  0  0
 18  7  1  0  0  0
  9  8  2  0  0  0
  7  8  1  0  0  0
  7  6  1  0  0  0
  6  1  1  0  0  0
  6  5  1  0  0  0
  1  2  1  0  0  0
  2  3  1  0  0  0
  5  4  1  0  0  0
  4  3  1  0  0  0
 22 23  2  0  0  0
 22 21  1  0  0  0
  3 20  1  0  0  0
 23 24  1  0  0  0
 20 21  1  0  0  0
 21 26  2  0  0  0
 24 25  2  0  0  0
 26 25  1  0  0  0
 14 19  1  0  0  0
M  END
> <minimizedAffinity>
-9.00027

$$$$
4E6Q_0NV_A_1201


 26 30  0  0  0  0  0  0  0  0999 V2000
   10.9483   26.5277    9.4262 C   0  0  0  0  0  0  0  0  0  0  0  0
   10.7645   25.8278    8.0665 C   0  0  0  0  0  0  0  0  0  0  0  0
   12.0654   25.4993    7.4295 N   0  0  0  0  0  0  0  0  0  0  0  0
   12.8820   24.6440    8.2953 C   0  0  0  0  0  0  0  0  0  0  0  0
   13.1885   25.3136    9.6635 C   0  0  0  0  0  0  0  0  0  0  0  0
   11.7993   25.5730   10.2665 C   0  0  0  0  0  0  0  0  0  0  0  0
   11.9881   26.0926   11.6074 N   0  0  0  0  0  0  0  0  0  0  0  0
   11.9021   25.3498   12.7592 C   0  0  0  0  0  0  0  0  0  0  0  0
   12.1297   26.0948   13.7891 N   0  0  0  0  0  0  0  0  0  0  0  0
   12.3712   27.3754   13.3870 C   0  0  0  0  0  0  0  0  0  0  0  0
   12.6563   28.5717   14.0472 C   0  0  0  0  0  0  0  0  0  0  0  0
   12.8790   29.6794   13.3940 N   0  0  0  0  0  0  0  0  0  0  0  0
   12.8425   29.7575   12.0664 C   0  0  0  0  0  0  0  0  0  0  0  0
   13.0175   30.8053   11.2094 N   0  0  0  0  0  0  0  0  0  0  0  0
   12.8336   30.3551    9.9170 C   0  0  0  0  0  0  0  0  0  0  0  0
   12.5771   29.0407    9.8799 C   0  0  0  0  0  0  0  0  0  0  0  0
   12.5565   28.6138   11.2924 C   0  0  0  0  0  0  0  0  0  0  0  0
   12.3115   27.3911   11.9573 C   0  0  0  0  0  0  0  0  0  0  0  0
   13.2384   31.7288   11.4695 H   0  0  0  0  0  0  0  0  0  0  0  0
   11.8863   24.8000    6.1197 C   0  0  0  0  0  0  0  0  0  0  0  0
   11.7799   25.7704    4.9440 C   0  0  0  0  0  0  0  0  0  0  0  0
   12.8599   26.5864    4.5864 C   0  0  0  0  0  0  0  0  0  0  0  0
   12.8014   27.4688    3.5221 C   0  0  0  0  0  0  0  0  0  0  0  0
   11.6079   27.5286    2.8222 C   0  0  0  0  0  0  0  0  0  0  0  0
   10.5242   26.7255    3.1623 C   0  0  0  0  0  0  0  0  0  0  0  0
   10.5945   25.8436    4.2252 C   0  0  0  0  0  0  0  0  0  0  0  0
 14 15  1  0  0  0
 14 13  1  0  0  0
 12 13  2  0  0  0
 12 11  1  0  0  0
 15 16  2  0  0  0
 13 17  1  0  0  0
 11 10  2  0  0  0
 16 17  1  0  0  0
 17 18  2  0  0  0
 10 18  1  0  0  0
 10  9  1  0  0  0
 18  7  1  0  0  0
  9  8  2  0  0  0
  7  8  1  0  0  0
  7  6  1  0  0  0
  6  1  1  0  0  0
  6  5  1  0  0  0
  1  2  1  0  0  0
  2  3  1  0  0  0
  5  4  1  0  0  0
  4  3  1  0  0  0
 22 23  2  0  0  0
 22 21  1  0  0  0
  3 20  1  0  0  0
 23 24  1  0  0  0
 20 21  1  0  0  0
 21 26  2  0  0  0
 24 25  2  0  0  0
 26 25  1  0  0  0
 14 19  1  0  0  0
M  END
> <minimizedAffinity>
-8.79952

$$$$
4E6Q_0NV_A_1201


 26 30  0  0  0  0  0  0  0  0999 V2000
   11.9727   24.4866    7.9367 C   0  0  0  0  0  0  0  0  0  0  0  0
   12.2832   24.6870    9.4320 C   0  0  0  0  0  0  0  0  0  0  0  0
   12.1572   26.1094    9.8406 N   0  0  0  0  0  0  0  0  0  0  0  0
   10.8143   26.6269    9.5627 C   0  0  0  0  0  0  0  0  0  0  0  0
   10.4513   26.5409    8.0544 C   0  0  0  0  0  0  0  0  0  0  0  0
   10.5614   25.0424    7.7334 C   0  0  0  0  0  0  0  0  0  0  0  0
   10.1215   24.8487    6.3650 N   0  0  0  0  0  0  0  0  0  0  0  0
    9.0733   24.0492    5.9805 C   0  0  0  0  0  0  0  0  0  0  0  0
    8.9248   24.0933    4.6985 N   0  0  0  0  0  0  0  0  0  0  0  0
    9.8674   24.9146    4.1536 C   0  0  0  0  0  0  0  0  0  0  0  0
   10.1832   25.3164    2.8547 C   0  0  0  0  0  0  0  0  0  0  0  0
   11.1483   26.1611    2.6135 N   0  0  0  0  0  0  0  0  0  0  0  0
   11.9038   26.6909    3.5719 C   0  0  0  0  0  0  0  0  0  0  0  0
   12.9588   27.5558    3.5280 N   0  0  0  0  0  0  0  0  0  0  0  0
   13.4180   27.7589    4.8143 C   0  0  0  0  0  0  0  0  0  0  0  0
   12.6867   27.0892    5.7152 C   0  0  0  0  0  0  0  0  0  0  0  0
   11.6825   26.3528    4.9231 C   0  0  0  0  0  0  0  0  0  0  0  0
   10.6456   25.4436    5.2318 C   0  0  0  0  0  0  0  0  0  0  0  0
   13.3306   27.9667    2.7142 H   0  0  0  0  0  0  0  0  0  0  0  0
   12.4372   26.3002   11.2972 C   0  0  0  0  0  0  0  0  0  0  0  0
   12.5885   27.7719   11.6797 C   0  0  0  0  0  0  0  0  0  0  0  0
   12.7169   28.7599   10.6962 C   0  0  0  0  0  0  0  0  0  0  0  0
   12.8458   30.1022   11.0066 C   0  0  0  0  0  0  0  0  0  0  0  0
   12.8610   30.4363   12.3505 C   0  0  0  0  0  0  0  0  0  0  0  0
   12.7342   29.4687   13.3419 C   0  0  0  0  0  0  0  0  0  0  0  0
   12.6015   28.1302   13.0209 C   0  0  0  0  0  0  0  0  0  0  0  0
 14 15  1  0  0  0
 14 13  1  0  0  0
 12 13  2  0  0  0
 12 11  1  0  0  0
 15 16  2  0  0  0
 13 17  1  0  0  0
 11 10  2  0  0  0
 16 17  1  0  0  0
 17 18  2  0  0  0
 10 18  1  0  0  0
 10  9  1  0  0  0
 18  7  1  0  0  0
  9  8  2  0  0  0
  7  8  1  0  0  0
  7  6  1  0  0  0
  6  1  1  0  0  0
  6  5  1  0  0  0
  1  2  1  0  0  0
  2  3  1  0  0  0
  5  4  1  0  0  0
  4  3  1  0  0  0
 22 23  2  0  0  0
 22 21  1  0  0  0
  3 20  1  0  0  0
 23 24  1  0  0  0
 20 21  1  0  0  0
 21 26  2  0  0  0
 24 25  2  0  0  0
 26 25  1  0  0  0
 14 19  1  0  0  0
M  END
> <minimizedAffinity>
-8.51891

$$$$
4E6Q_0NV_A_1201


 26 30  0  0  0  0  0  0  0  0999 V2000
   13.4085   26.7601    7.4222 C   0  0  0  0  0  0  0  0  0  0  0  0
   13.2924   26.2549    8.8727 C   0  0  0  0  0  0  0  0  0  0  0  0
   12.0522   26.7373    9.5323 N   0  0  0  0  0  0  0  0  0  0  0  0
   10.8580   26.3233    8.7901 C   0  0  0  0  0  0  0  0  0  0  0  0
   10.8531   26.8655    7.3340 C   0  0  0  0  0  0  0  0  0  0  0  0
   12.1354   26.2834    6.7195 C   0  0  0  0  0  0  0  0  0  0  0  0
   12.1555   26.6414    5.3141 N   0  0  0  0  0  0  0  0  0  0  0  0
   12.9887   27.5769    4.7516 C   0  0  0  0  0  0  0  0  0  0  0  0
   12.7726   27.6612    3.4813 N   0  0  0  0  0  0  0  0  0  0  0  0
   11.7799   26.7967    3.1246 C   0  0  0  0  0  0  0  0  0  0  0  0
   11.1422   26.4796    1.9241 C   0  0  0  0  0  0  0  0  0  0  0  0
   10.2153   25.5629    1.8611 N   0  0  0  0  0  0  0  0  0  0  0  0
    9.8034   24.8750    2.9226 C   0  0  0  0  0  0  0  0  0  0  0  0
    8.8478   23.9116    3.0702 N   0  0  0  0  0  0  0  0  0  0  0  0
    8.7868   23.5495    4.4014 C   0  0  0  0  0  0  0  0  0  0  0  0
    9.6894   24.2105    5.1386 C   0  0  0  0  0  0  0  0  0  0  0  0
   10.3703   25.1145    4.1915 C   0  0  0  0  0  0  0  0  0  0  0  0
   11.3799   26.0966    4.3068 C   0  0  0  0  0  0  0  0  0  0  0  0
    8.2940   23.5370    2.3475 H   0  0  0  0  0  0  0  0  0  0  0  0
   11.9292   26.2285   10.9332 C   0  0  0  0  0  0  0  0  0  0  0  0
   12.2740   27.2897   11.9773 C   0  0  0  0  0  0  0  0  0  0  0  0
   12.5417   28.6104   11.5976 C   0  0  0  0  0  0  0  0  0  0  0  0
   12.8475   29.5983   12.5169 C   0  0  0  0  0  0  0  0  0  0  0  0
   12.8970   29.2217   13.8487 C   0  0  0  0  0  0  0  0  0  0  0  0
   12.6337   27.9146   14.2452 C   0  0  0  0  0  0  0  0  0  0  0  0
   12.3247   26.9357   13.3187 C   0  0  0  0  0  0  0  0  0  0  0  0
 14 15  1  0  0  0
 14 13  1  0  0  0
 12 13  2  0  0  0
 12 11  1  0  0  0
 15 16  2  0  0  0
 13 17  1  0  0  0
 11 10  2  0  0  0
 16 17  1  0  0  0
 17 18  2  0  0  0
 10 18  1  0  0  0
 10  9  1  0  0  0
 18  7  1  0  0  0
  9  8  2  0  0  0
  7  8  1  0  0  0
  7  6  1  0  0  0
  6  1  1  0  0  0
  6  5  1  0  0  0
  1  2  1  0  0  0
  2  3  1  0  0  0
  5  4  1  0  0  0
  4  3  1  0  0  0
 22 23  2  0  0  0
 22 21  1  0  0  0
  3 20  1  0  0  0
 23 24  1  0  0  0
 20 21  1  0  0  0
 21 26  2  0  0  0
 24 25  2  0  0  0
 26 25  1  0  0  0
 14 19  1  0  0  0
M  END
> <minimizedAffinity>
-8.33327

$$$$
