3U5L_08K_A_1


 23 26  0  0  0  0  0  0  0  0999 V2000
   25.6861   14.5282    0.3534 Cl  0  0  0  0  0  0  0  0  0  0  0  0
   27.2945   15.1980    0.1341 C   0  0  0  0  0  0  0  0  0  0  0  0
   27.8184   15.2858   -1.1320 C   0  0  0  0  0  0  0  0  0  0  0  0
   29.0968   15.8466   -1.2927 C   0  0  0  0  0  0  0  0  0  0  0  0
   29.6474   15.9540   -2.6816 C   0  0  0  0  0  0  0  0  0  0  0  0
   30.9087   15.7817   -2.9220 N   0  0  0  0  0  0  0  0  0  0  0  0
   31.9151   15.3772   -1.9453 N   0  0  0  0  0  0  0  0  0  0  0  0
   33.0203   14.5414   -2.3549 C   0  0  0  0  0  0  0  0  0  0  0  0
   32.0762   16.3023   -0.9655 C   0  0  0  0  0  0  0  0  0  0  0  0
   31.1111   16.8384   -0.2519 N   0  0  0  0  0  0  0  0  0  0  0  0
   31.6253   17.8529    0.4705 C   0  0  0  0  0  0  0  0  0  0  0  0
   30.9597   18.7343    1.4688 C   0  0  0  0  0  0  0  0  0  0  0  0
   32.9034   17.9846    0.1413 N   0  0  0  0  0  0  0  0  0  0  0  0
   33.2238   16.9803   -0.7896 N   0  0  0  0  0  0  0  0  0  0  0  0
   29.8340   16.3028   -0.1806 C   0  0  0  0  0  0  0  0  0  0  0  0
   29.2446   16.1220    1.0860 C   0  0  0  0  0  0  0  0  0  0  0  0
   27.9801   15.6057    1.2567 C   0  0  0  0  0  0  0  0  0  0  0  0
   28.7420   16.4576   -3.7732 C   0  0  0  0  0  0  0  0  0  0  0  0
   27.5472   17.1422   -3.4976 C   0  0  0  0  0  0  0  0  0  0  0  0
   26.7702   17.6730   -4.5308 C   0  0  0  0  0  0  0  0  0  0  0  0
   27.1893   17.5380   -5.8494 C   0  0  0  0  0  0  0  0  0  0  0  0
   28.4025   16.8926   -6.1160 C   0  0  0  0  0  0  0  0  0  0  0  0
   29.1602   16.3502   -5.0999 C   0  0  0  0  0  0  0  0  0  0  0  0
 22 21  2  0  0  0
 22 23  1  0  0  0
 21 20  1  0  0  0
 23 18  2  0  0  0
 20 19  2  0  0  0
 18 19  1  0  0  0
 18  5  1  0  0  0
  6  5  2  0  0  0
  6  7  1  0  0  0
  5  4  1  0  0  0
  8  7  1  0  0  0
  7  9  1  0  0  0
  4  3  2  0  0  0
  4 15  1  0  0  0
  3  2  1  0  0  0
  9 14  2  0  0  0
  9 10  1  0  0  0
 14 13  1  0  0  0
 10 15  1  0  0  0
 10 11  1  0  0  0
 15 16  2  0  0  0
  2  1  1  0  0  0
  2 17  2  0  0  0
 13 11  2  0  0  0
 11 12  1  0  0  0
 16 17  1  0  0  0
M  END
> <minimizedAffinity>
-9.59517

$$$$
3U5L_08K_A_1


 23 26  0  0  0  0  0  0  0  0999 V2000
   26.6897   16.1396   -4.0764 Cl  0  0  0  0  0  0  0  0  0  0  0  0
   28.2123   16.1537   -3.2018 C   0  0  0  0  0  0  0  0  0  0  0  0
   28.2024   16.3206   -1.8391 C   0  0  0  0  0  0  0  0  0  0  0  0
   29.4277   16.3051   -1.1514 C   0  0  0  0  0  0  0  0  0  0  0  0
   29.3999   16.4687    0.3374 C   0  0  0  0  0  0  0  0  0  0  0  0
   30.3269   17.1247    0.9609 N   0  0  0  0  0  0  0  0  0  0  0  0
   31.4252   17.8529    0.3332 N   0  0  0  0  0  0  0  0  0  0  0  0
   31.9242   19.0657    0.9399 C   0  0  0  0  0  0  0  0  0  0  0  0
   32.2603   17.0285   -0.3485 C   0  0  0  0  0  0  0  0  0  0  0  0
   31.8950   16.1354   -1.2412 N   0  0  0  0  0  0  0  0  0  0  0  0
   32.9638   15.3747   -1.5484 C   0  0  0  0  0  0  0  0  0  0  0  0
   33.0838   14.2696   -2.5387 C   0  0  0  0  0  0  0  0  0  0  0  0
   33.9758   15.7604   -0.7825 N   0  0  0  0  0  0  0  0  0  0  0  0
   33.5441   16.8426    0.0051 N   0  0  0  0  0  0  0  0  0  0  0  0
   30.6450   16.1314   -1.8416 C   0  0  0  0  0  0  0  0  0  0  0  0
   30.5670   16.0248   -3.2440 C   0  0  0  0  0  0  0  0  0  0  0  0
   29.3728   16.0042   -3.9281 C   0  0  0  0  0  0  0  0  0  0  0  0
   28.3780   15.6924    1.1235 C   0  0  0  0  0  0  0  0  0  0  0  0
   28.5225   15.4445    2.4983 C   0  0  0  0  0  0  0  0  0  0  0  0
   27.5168   14.7952    3.2194 C   0  0  0  0  0  0  0  0  0  0  0  0
   26.3494   14.4018    2.5752 C   0  0  0  0  0  0  0  0  0  0  0  0
   26.1919   14.6897    1.2145 C   0  0  0  0  0  0  0  0  0  0  0  0
   27.1913   15.3116    0.4967 C   0  0  0  0  0  0  0  0  0  0  0  0
 22 21  2  0  0  0
 22 23  1  0  0  0
 21 20  1  0  0  0
 23 18  2  0  0  0
 20 19  2  0  0  0
 18 19  1  0  0  0
 18  5  1  0  0  0
  6  5  2  0  0  0
  6  7  1  0  0  0
  5  4  1  0  0  0
  8  7  1  0  0  0
  7  9  1  0  0  0
  4  3  2  0  0  0
  4 15  1  0  0  0
  3  2  1  0  0  0
  9 14  2  0  0  0
  9 10  1  0  0  0
 14 13  1  0  0  0
 10 15  1  0  0  0
 10 11  1  0  0  0
 15 16  2  0  0  0
  2  1  1  0  0  0
  2 17  2  0  0  0
 13 11  2  0  0  0
 11 12  1  0  0  0
 16 17  1  0  0  0
M  END
> <minimizedAffinity>
-8.92926

$$$$
3U5L_08K_A_1


 23 26  0  0  0  0  0  0  0  0999 V2000
   26.5296   17.5370   -5.2507 Cl  0  0  0  0  0  0  0  0  0  0  0  0
   27.9742   16.8683   -4.5093 C   0  0  0  0  0  0  0  0  0  0  0  0
   28.0402   16.7637   -3.1420 C   0  0  0  0  0  0  0  0  0  0  0  0
   29.1931   16.2039   -2.5658 C   0  0  0  0  0  0  0  0  0  0  0  0
   29.2429   16.0780   -1.0740 C   0  0  0  0  0  0  0  0  0  0  0  0
   30.3475   16.2501   -0.4194 N   0  0  0  0  0  0  0  0  0  0  0  0
   31.6218   16.6711   -0.9934 N   0  0  0  0  0  0  0  0  0  0  0  0
   32.5175   17.5039   -0.2239 C   0  0  0  0  0  0  0  0  0  0  0  0
   32.1111   15.7606   -1.8728 C   0  0  0  0  0  0  0  0  0  0  0  0
   31.4478   15.2323   -2.8772 N   0  0  0  0  0  0  0  0  0  0  0  0
   32.1831   14.2296   -3.3961 C   0  0  0  0  0  0  0  0  0  0  0  0
   31.9003   13.3609   -4.5716 C   0  0  0  0  0  0  0  0  0  0  0  0
   33.2758   14.0964   -2.6560 N   0  0  0  0  0  0  0  0  0  0  0  0
   33.2556   15.0882   -1.6591 N   0  0  0  0  0  0  0  0  0  0  0  0
   30.2660   15.7656   -3.3691 C   0  0  0  0  0  0  0  0  0  0  0  0
   30.1378   15.9630   -4.7579 C   0  0  0  0  0  0  0  0  0  0  0  0
   29.0016   16.4785   -5.3393 C   0  0  0  0  0  0  0  0  0  0  0  0
   28.0256   15.5565   -0.3590 C   0  0  0  0  0  0  0  0  0  0  0  0
   27.0236   14.8289   -1.0213 C   0  0  0  0  0  0  0  0  0  0  0  0
   25.9477   14.2839   -0.3152 C   0  0  0  0  0  0  0  0  0  0  0  0
   25.8722   14.4479    1.0631 C   0  0  0  0  0  0  0  0  0  0  0  0
   26.8957   15.1368    1.7244 C   0  0  0  0  0  0  0  0  0  0  0  0
   27.9472   15.6929    1.0272 C   0  0  0  0  0  0  0  0  0  0  0  0
 22 21  2  0  0  0
 22 23  1  0  0  0
 21 20  1  0  0  0
 23 18  2  0  0  0
 20 19  2  0  0  0
 18 19  1  0  0  0
 18  5  1  0  0  0
  6  5  2  0  0  0
  6  7  1  0  0  0
  5  4  1  0  0  0
  8  7  1  0  0  0
  7  9  1  0  0  0
  4  3  2  0  0  0
  4 15  1  0  0  0
  3  2  1  0  0  0
  9 14  2  0  0  0
  9 10  1  0  0  0
 14 13  1  0  0  0
 10 15  1  0  0  0
 10 11  1  0  0  0
 15 16  2  0  0  0
  2  1  1  0  0  0
  2 17  2  0  0  0
 13 11  2  0  0  0
 11 12  1  0  0  0
 16 17  1  0  0  0
M  END
> <minimizedAffinity>
-8.46366

$$$$
3U5L_08K_A_1


 23 26  0  0  0  0  0  0  0  0999 V2000
   27.0980   15.3125    2.2111 Cl  0  0  0  0  0  0  0  0  0  0  0  0
   27.1584   15.0994    0.4691 C   0  0  0  0  0  0  0  0  0  0  0  0
   28.2203   15.6128   -0.2337 C   0  0  0  0  0  0  0  0  0  0  0  0
   28.2658   15.4125   -1.6238 C   0  0  0  0  0  0  0  0  0  0  0  0
   29.4401   15.9611   -2.3747 C   0  0  0  0  0  0  0  0  0  0  0  0
   29.3092   16.4493   -3.5675 N   0  0  0  0  0  0  0  0  0  0  0  0
   28.0493   16.6245   -4.2834 N   0  0  0  0  0  0  0  0  0  0  0  0
   27.8795   17.7471   -5.1772 C   0  0  0  0  0  0  0  0  0  0  0  0
   27.4396   15.4396   -4.5407 C   0  0  0  0  0  0  0  0  0  0  0  0
   27.1971   14.4954   -3.6588 N   0  0  0  0  0  0  0  0  0  0  0  0
   26.7712   13.3973   -4.3132 C   0  0  0  0  0  0  0  0  0  0  0  0
   26.3198   12.0878   -3.7673 C   0  0  0  0  0  0  0  0  0  0  0  0
   26.8221   13.6493   -5.6144 N   0  0  0  0  0  0  0  0  0  0  0  0
   27.2492   14.9779   -5.7889 N   0  0  0  0  0  0  0  0  0  0  0  0
   27.2414   14.7081   -2.2893 C   0  0  0  0  0  0  0  0  0  0  0  0
   26.1620   14.2659   -1.4994 C   0  0  0  0  0  0  0  0  0  0  0  0
   26.1197   14.4248   -0.1329 C   0  0  0  0  0  0  0  0  0  0  0  0
   30.8154   15.7606   -1.7976 C   0  0  0  0  0  0  0  0  0  0  0  0
   31.7677   14.9271   -2.4064 C   0  0  0  0  0  0  0  0  0  0  0  0
   33.0645   14.8271   -1.8951 C   0  0  0  0  0  0  0  0  0  0  0  0
   33.4261   15.5726   -0.7789 C   0  0  0  0  0  0  0  0  0  0  0  0
   32.4863   16.4346   -0.2017 C   0  0  0  0  0  0  0  0  0  0  0  0
   31.2005   16.5192   -0.6919 C   0  0  0  0  0  0  0  0  0  0  0  0
 22 21  2  0  0  0
 22 23  1  0  0  0
 21 20  1  0  0  0
 23 18  2  0  0  0
 20 19  2  0  0  0
 18 19  1  0  0  0
 18  5  1  0  0  0
  6  5  2  0  0  0
  6  7  1  0  0  0
  5  4  1  0  0  0
  8  7  1  0  0  0
  7  9  1  0  0  0
  4  3  2  0  0  0
  4 15  1  0  0  0
  3  2  1  0  0  0
  9 14  2  0  0  0
  9 10  1  0  0  0
 14 13  1  0  0  0
 10 15  1  0  0  0
 10 11  1  0  0  0
 15 16  2  0  0  0
  2  1  1  0  0  0
  2 17  2  0  0  0
 13 11  2  0  0  0
 11 12  1  0  0  0
 16 17  1  0  0  0
M  END
> <minimizedAffinity>
-7.49330

$$$$
3U5L_08K_A_1


 23 26  0  0  0  0  0  0  0  0999 V2000
   27.1195   17.5213   -3.8238 Cl  0  0  0  0  0  0  0  0  0  0  0  0
   28.1013   16.0784   -4.0185 C   0  0  0  0  0  0  0  0  0  0  0  0
   29.3715   16.0553   -3.4980 C   0  0  0  0  0  0  0  0  0  0  0  0
   30.1351   14.8844   -3.6411 C   0  0  0  0  0  0  0  0  0  0  0  0
   31.5118   14.8668   -3.0511 C   0  0  0  0  0  0  0  0  0  0  0  0
   32.4880   14.2473   -3.6357 N   0  0  0  0  0  0  0  0  0  0  0  0
   32.4240   13.5940   -4.9394 N   0  0  0  0  0  0  0  0  0  0  0  0
   33.5835   13.5931   -5.8015 C   0  0  0  0  0  0  0  0  0  0  0  0
   31.5605   12.5470   -4.9437 C   0  0  0  0  0  0  0  0  0  0  0  0
   30.3159   12.5787   -4.5217 N   0  0  0  0  0  0  0  0  0  0  0  0
   29.8422   11.3177   -4.4900 C   0  0  0  0  0  0  0  0  0  0  0  0
   28.4807   10.8285   -4.1386 C   0  0  0  0  0  0  0  0  0  0  0  0
   30.8300   10.4995   -4.8276 N   0  0  0  0  0  0  0  0  0  0  0  0
   31.9605   11.2777   -5.1347 N   0  0  0  0  0  0  0  0  0  0  0  0
   29.6166   13.7576   -4.3118 C   0  0  0  0  0  0  0  0  0  0  0  0
   28.3273   13.8883   -4.8640 C   0  0  0  0  0  0  0  0  0  0  0  0
   27.5545   15.0159   -4.7030 C   0  0  0  0  0  0  0  0  0  0  0  0
   31.7030   15.4193   -1.6643 C   0  0  0  0  0  0  0  0  0  0  0  0
   31.0236   14.8979   -0.5513 C   0  0  0  0  0  0  0  0  0  0  0  0
   31.2852   15.3742    0.7362 C   0  0  0  0  0  0  0  0  0  0  0  0
   32.2411   16.3658    0.9247 C   0  0  0  0  0  0  0  0  0  0  0  0
   32.9463   16.8517   -0.1825 C   0  0  0  0  0  0  0  0  0  0  0  0
   32.6752   16.3980   -1.4559 C   0  0  0  0  0  0  0  0  0  0  0  0
 22 21  2  0  0  0
 22 23  1  0  0  0
 21 20  1  0  0  0
 23 18  2  0  0  0
 20 19  2  0  0  0
 18 19  1  0  0  0
 18  5  1  0  0  0
  6  5  2  0  0  0
  6  7  1  0  0  0
  5  4  1  0  0  0
  8  7  1  0  0  0
  7  9  1  0  0  0
  4  3  2  0  0  0
  4 15  1  0  0  0
  3  2  1  0  0  0
  9 14  2  0  0  0
  9 10  1  0  0  0
 14 13  1  0  0  0
 10 15  1  0  0  0
 10 11  1  0  0  0
 15 16  2  0  0  0
  2  1  1  0  0  0
  2 17  2  0  0  0
 13 11  2  0  0  0
 11 12  1  0  0  0
 16 17  1  0  0  0
M  END
> <minimizedAffinity>
-6.79454

$$$$
3U5L_08K_A_1


 23 26  0  0  0  0  0  0  0  0999 V2000
   26.2738   15.5618   -0.0014 Cl  0  0  0  0  0  0  0  0  0  0  0  0
   27.1582   15.0045   -1.4124 C   0  0  0  0  0  0  0  0  0  0  0  0
   28.3793   15.5611   -1.7026 C   0  0  0  0  0  0  0  0  0  0  0  0
   29.0850   15.0869   -2.8213 C   0  0  0  0  0  0  0  0  0  0  0  0
   30.4246   15.6897   -3.1143 C   0  0  0  0  0  0  0  0  0  0  0  0
   30.8266   15.8804   -4.3310 N   0  0  0  0  0  0  0  0  0  0  0  0
   30.0374   15.6454   -5.5362 N   0  0  0  0  0  0  0  0  0  0  0  0
   30.2134   16.4981   -6.6893 C   0  0  0  0  0  0  0  0  0  0  0  0
   29.7179   14.3353   -5.6895 C   0  0  0  0  0  0  0  0  0  0  0  0
   29.1698   13.5681   -4.7735 N   0  0  0  0  0  0  0  0  0  0  0  0
   29.1905   12.2946   -5.2129 C   0  0  0  0  0  0  0  0  0  0  0  0
   28.6454   11.0655   -4.5736 C   0  0  0  0  0  0  0  0  0  0  0  0
   29.8224   12.2730   -6.3789 N   0  0  0  0  0  0  0  0  0  0  0  0
   30.1711   13.5934   -6.7150 N   0  0  0  0  0  0  0  0  0  0  0  0
   28.5517   14.0679   -3.6372 C   0  0  0  0  0  0  0  0  0  0  0  0
   27.2687   13.5942   -3.2996 C   0  0  0  0  0  0  0  0  0  0  0  0
   26.5801   14.0245   -2.1882 C   0  0  0  0  0  0  0  0  0  0  0  0
   31.3824   15.8945   -1.9716 C   0  0  0  0  0  0  0  0  0  0  0  0
   31.0286   16.6145   -0.8190 C   0  0  0  0  0  0  0  0  0  0  0  0
   31.9088   16.7156    0.2617 C   0  0  0  0  0  0  0  0  0  0  0  0
   33.1457   16.0835    0.2064 C   0  0  0  0  0  0  0  0  0  0  0  0
   33.4763   15.3312   -0.9268 C   0  0  0  0  0  0  0  0  0  0  0  0
   32.6180   15.2474   -2.0025 C   0  0  0  0  0  0  0  0  0  0  0  0
 22 21  2  0  0  0
 22 23  1  0  0  0
 21 20  1  0  0  0
 23 18  2  0  0  0
 20 19  2  0  0  0
 18 19  1  0  0  0
 18  5  1  0  0  0
  6  5  2  0  0  0
  6  7  1  0  0  0
  5  4  1  0  0  0
  8  7  1  0  0  0
  7  9  1  0  0  0
  4  3  2  0  0  0
  4 15  1  0  0  0
  3  2  1  0  0  0
  9 14  2  0  0  0
  9 10  1  0  0  0
 14 13  1  0  0  0
 10 15  1  0  0  0
 10 11  1  0  0  0
 15 16  2  0  0  0
  2  1  1  0  0  0
  2 17  2  0  0  0
 13 11  2  0  0  0
 11 12  1  0  0  0
 16 17  1  0  0  0
M  END
> <minimizedAffinity>
-6.67803

$$$$
