4QP2_36R_A_401


 13 14  0  0  0  0  0  0  0  0999 V2000
  -17.4543  -35.9553  -28.2264 C   0  0  0  0  0  0  0  0  0  0  0  0
  -17.6315  -37.2997  -28.5464 C   0  0  0  0  0  0  0  0  0  0  0  0
  -17.3626  -38.2839  -27.6096 C   0  0  0  0  0  0  0  0  0  0  0  0
  -16.9240  -37.9489  -26.3321 C   0  0  0  0  0  0  0  0  0  0  0  0
  -16.7483  -36.6218  -25.9924 C   0  0  0  0  0  0  0  0  0  0  0  0
  -17.0055  -35.6274  -26.9267 C   0  0  0  0  0  0  0  0  0  0  0  0
  -17.5735  -39.9545  -28.0440 Cl  0  0  0  0  0  0  0  0  0  0  0  0
  -17.6184  -34.7811  -28.9146 N   0  0  0  0  0  0  0  0  0  0  0  0
  -17.2800  -33.8020  -28.0876 C   0  0  0  0  0  0  0  0  0  0  0  0
  -16.9180  -34.2800  -26.8814 O   0  0  0  0  0  0  0  0  0  0  0  0
  -17.2963  -32.4622  -28.3538 N   0  0  0  0  0  0  0  0  0  0  0  0
  -17.5653  -32.1405  -29.2446 H   0  0  0  0  0  0  0  0  0  0  0  0
  -17.0391  -31.8183  -27.6549 H   0  0  0  0  0  0  0  0  0  0  0  0
  8  1  1  0  0  0
  8  9  2  0  0  0
  2  1  2  0  0  0
  2  3  1  0  0  0
  1  6  1  0  0  0
 11  9  1  0  0  0
  7  3  1  0  0  0
  9 10  1  0  0  0
  3  4  2  0  0  0
  6 10  1  0  0  0
  6  5  2  0  0  0
  4  5  1  0  0  0
 11 12  1  0  0  0
 11 13  1  0  0  0
M  END
> <minimizedAffinity>
-5.73810

$$$$
4QP2_36R_A_401


 13 14  0  0  0  0  0  0  0  0999 V2000
  -17.0264  -35.6427  -26.9535 C   0  0  0  0  0  0  0  0  0  0  0  0
  -16.8084  -36.7062  -26.0803 C   0  0  0  0  0  0  0  0  0  0  0  0
  -17.0613  -38.0069  -26.4839 C   0  0  0  0  0  0  0  0  0  0  0  0
  -17.5243  -38.2755  -27.7684 C   0  0  0  0  0  0  0  0  0  0  0  0
  -17.7406  -37.2361  -28.6518 C   0  0  0  0  0  0  0  0  0  0  0  0
  -17.4997  -35.9276  -28.2546 C   0  0  0  0  0  0  0  0  0  0  0  0
  -16.7992  -39.3125  -25.3655 Cl  0  0  0  0  0  0  0  0  0  0  0  0
  -16.8864  -34.2826  -26.8542 N   0  0  0  0  0  0  0  0  0  0  0  0
  -17.2615  -33.7729  -28.0189 C   0  0  0  0  0  0  0  0  0  0  0  0
  -17.6247  -34.7390  -28.8845 O   0  0  0  0  0  0  0  0  0  0  0  0
  -17.2789  -32.4522  -28.3679 N   0  0  0  0  0  0  0  0  0  0  0  0
  -17.0082  -31.7669  -27.7150 H   0  0  0  0  0  0  0  0  0  0  0  0
  -17.5622  -32.1858  -29.2723 H   0  0  0  0  0  0  0  0  0  0  0  0
  8  1  1  0  0  0
  8  9  2  0  0  0
  2  1  2  0  0  0
  2  3  1  0  0  0
  1  6  1  0  0  0
 11  9  1  0  0  0
  7  3  1  0  0  0
  9 10  1  0  0  0
  3  4  2  0  0  0
  6 10  1  0  0  0
  6  5  2  0  0  0
  4  5  1  0  0  0
 11 12  1  0  0  0
 11 13  1  0  0  0
M  END
> <minimizedAffinity>
-5.53191

$$$$
4QP2_36R_A_401


 13 14  0  0  0  0  0  0  0  0999 V2000
  -16.6817  -35.8235  -26.1474 C   0  0  0  0  0  0  0  0  0  0  0  0
  -16.2375  -36.6845  -25.1462 C   0  0  0  0  0  0  0  0  0  0  0  0
  -16.3993  -38.0539  -25.2777 C   0  0  0  0  0  0  0  0  0  0  0  0
  -16.9948  -38.5938  -26.4135 C   0  0  0  0  0  0  0  0  0  0  0  0
  -17.4360  -37.7581  -27.4207 C   0  0  0  0  0  0  0  0  0  0  0  0
  -17.2879  -36.3833  -27.2951 C   0  0  0  0  0  0  0  0  0  0  0  0
  -15.8534  -39.1028  -24.0025 Cl  0  0  0  0  0  0  0  0  0  0  0  0
  -16.6776  -34.4617  -26.3059 N   0  0  0  0  0  0  0  0  0  0  0  0
  -17.2549  -34.2101  -27.4722 C   0  0  0  0  0  0  0  0  0  0  0  0
  -17.6220  -35.3469  -28.0947 O   0  0  0  0  0  0  0  0  0  0  0  0
  -17.4605  -32.9833  -28.0370 N   0  0  0  0  0  0  0  0  0  0  0  0
  -17.1821  -32.1687  -27.5594 H   0  0  0  0  0  0  0  0  0  0  0  0
  -17.8870  -32.9139  -28.9216 H   0  0  0  0  0  0  0  0  0  0  0  0
  8  1  1  0  0  0
  8  9  2  0  0  0
  2  1  2  0  0  0
  2  3  1  0  0  0
  1  6  1  0  0  0
 11  9  1  0  0  0
  7  3  1  0  0  0
  9 10  1  0  0  0
  3  4  2  0  0  0
  6 10  1  0  0  0
  6  5  2  0  0  0
  4  5  1  0  0  0
 11 12  1  0  0  0
 11 13  1  0  0  0
M  END
> <minimizedAffinity>
-5.15404

$$$$
4QP2_36R_A_401


 13 14  0  0  0  0  0  0  0  0999 V2000
  -17.2750  -37.5569  -27.3381 C   0  0  0  0  0  0  0  0  0  0  0  0
  -17.3930  -36.3405  -28.0071 C   0  0  0  0  0  0  0  0  0  0  0  0
  -17.1019  -35.1525  -27.3569 C   0  0  0  0  0  0  0  0  0  0  0  0
  -16.6758  -35.1528  -26.0322 C   0  0  0  0  0  0  0  0  0  0  0  0
  -16.5458  -36.3484  -25.3530 C   0  0  0  0  0  0  0  0  0  0  0  0
  -16.8442  -37.5444  -25.9919 C   0  0  0  0  0  0  0  0  0  0  0  0
  -17.2779  -33.6481  -28.2112 Cl  0  0  0  0  0  0  0  0  0  0  0  0
  -17.4922  -38.8640  -27.6896 N   0  0  0  0  0  0  0  0  0  0  0  0
  -17.2205  -39.5984  -26.6201 C   0  0  0  0  0  0  0  0  0  0  0  0
  -16.8176  -38.8332  -25.5874 O   0  0  0  0  0  0  0  0  0  0  0  0
  -17.2966  -40.9587  -26.5193 N   0  0  0  0  0  0  0  0  0  0  0  0
  -17.5945  -41.4935  -27.2903 H   0  0  0  0  0  0  0  0  0  0  0  0
  -17.0535  -41.4041  -25.6757 H   0  0  0  0  0  0  0  0  0  0  0  0
  8  1  1  0  0  0
  8  9  2  0  0  0
  2  1  2  0  0  0
  2  3  1  0  0  0
  1  6  1  0  0  0
 11  9  1  0  0  0
  7  3  1  0  0  0
  9 10  1  0  0  0
  3  4  2  0  0  0
  6 10  1  0  0  0
  6  5  2  0  0  0
  4  5  1  0  0  0
 11 12  1  0  0  0
 11 13  1  0  0  0
M  END
> <minimizedAffinity>
-5.01776

$$$$
4QP2_36R_A_401


 13 14  0  0  0  0  0  0  0  0999 V2000
  -16.8477  -38.1420  -27.0442 C   0  0  0  0  0  0  0  0  0  0  0  0
  -16.2696  -37.9152  -25.7970 C   0  0  0  0  0  0  0  0  0  0  0  0
  -16.3767  -36.6744  -25.1907 C   0  0  0  0  0  0  0  0  0  0  0  0
  -17.0718  -35.6390  -25.8079 C   0  0  0  0  0  0  0  0  0  0  0  0
  -17.6580  -35.8450  -27.0414 C   0  0  0  0  0  0  0  0  0  0  0  0
  -17.5486  -37.0818  -27.6628 C   0  0  0  0  0  0  0  0  0  0  0  0
  -15.6275  -36.4146  -23.6429 Cl  0  0  0  0  0  0  0  0  0  0  0  0
  -16.9076  -39.2226  -27.8857 N   0  0  0  0  0  0  0  0  0  0  0  0
  -17.5929  -38.8389  -28.9534 C   0  0  0  0  0  0  0  0  0  0  0  0
  -18.0009  -37.5600  -28.8426 O   0  0  0  0  0  0  0  0  0  0  0  0
  -17.9000  -39.5986  -30.0465 N   0  0  0  0  0  0  0  0  0  0  0  0
  -17.5886  -40.5310  -30.1012 H   0  0  0  0  0  0  0  0  0  0  0  0
  -18.4327  -39.2137  -30.7796 H   0  0  0  0  0  0  0  0  0  0  0  0
  8  1  1  0  0  0
  8  9  2  0  0  0
  2  1  2  0  0  0
  2  3  1  0  0  0
  1  6  1  0  0  0
 11  9  1  0  0  0
  7  3  1  0  0  0
  9 10  1  0  0  0
  3  4  2  0  0  0
  6 10  1  0  0  0
  6  5  2  0  0  0
  4  5  1  0  0  0
 11 12  1  0  0  0
 11 13  1  0  0  0
M  END
> <minimizedAffinity>
-4.95737

$$$$
4QP2_36R_A_401


 13 14  0  0  0  0  0  0  0  0999 V2000
  -17.1481  -38.1523  -27.3615 C   0  0  0  0  0  0  0  0  0  0  0  0
  -17.5552  -36.8368  -27.5728 C   0  0  0  0  0  0  0  0  0  0  0  0
  -16.8676  -36.0249  -28.4598 C   0  0  0  0  0  0  0  0  0  0  0  0
  -15.7692  -36.5100  -29.1629 C   0  0  0  0  0  0  0  0  0  0  0  0
  -15.3533  -37.8134  -28.9730 C   0  0  0  0  0  0  0  0  0  0  0  0
  -16.0291  -38.6331  -28.0791 C   0  0  0  0  0  0  0  0  0  0  0  0
  -17.3865  -34.3808  -28.6880 Cl  0  0  0  0  0  0  0  0  0  0  0  0
  -17.5982  -39.1743  -26.5663 N   0  0  0  0  0  0  0  0  0  0  0  0
  -16.7960  -40.2077  -26.7799 C   0  0  0  0  0  0  0  0  0  0  0  0
  -15.8499  -39.9153  -27.6932 O   0  0  0  0  0  0  0  0  0  0  0  0
  -16.8776  -41.4419  -26.2001 N   0  0  0  0  0  0  0  0  0  0  0  0
  -17.5795  -41.6281  -25.5354 H   0  0  0  0  0  0  0  0  0  0  0  0
  -16.2344  -42.1452  -26.4470 H   0  0  0  0  0  0  0  0  0  0  0  0
  8  1  1  0  0  0
  8  9  2  0  0  0
  2  1  2  0  0  0
  2  3  1  0  0  0
  1  6  1  0  0  0
 11  9  1  0  0  0
  7  3  1  0  0  0
  9 10  1  0  0  0
  3  4  2  0  0  0
  6 10  1  0  0  0
  6  5  2  0  0  0
  4  5  1  0  0  0
 11 12  1  0  0  0
 11 13  1  0  0  0
M  END
> <minimizedAffinity>
-4.95652

$$$$
4QP2_36R_A_401


 13 14  0  0  0  0  0  0  0  0999 V2000
  -17.4615  -39.4112  -28.4135 C   0  0  0  0  0  0  0  0  0  0  0  0
  -17.2326  -38.1890  -27.7850 C   0  0  0  0  0  0  0  0  0  0  0  0
  -17.0433  -38.1312  -26.4140 C   0  0  0  0  0  0  0  0  0  0  0  0
  -17.0656  -39.2897  -25.6436 C   0  0  0  0  0  0  0  0  0  0  0  0
  -17.2843  -40.5122  -26.2480 C   0  0  0  0  0  0  0  0  0  0  0  0
  -17.4850  -40.5808  -27.6202 C   0  0  0  0  0  0  0  0  0  0  0  0
  -16.7799  -36.5892  -25.6544 Cl  0  0  0  0  0  0  0  0  0  0  0  0
  -17.6892  -39.7886  -29.7116 N   0  0  0  0  0  0  0  0  0  0  0  0
  -17.8515  -41.1041  -29.7051 C   0  0  0  0  0  0  0  0  0  0  0  0
  -17.7229  -41.6095  -28.4631 O   0  0  0  0  0  0  0  0  0  0  0  0
  -18.0963  -41.9049  -30.7845 N   0  0  0  0  0  0  0  0  0  0  0  0
  -18.1858  -41.5085  -31.6813 H   0  0  0  0  0  0  0  0  0  0  0  0
  -18.1833  -42.8783  -30.6657 H   0  0  0  0  0  0  0  0  0  0  0  0
  8  1  1  0  0  0
  8  9  2  0  0  0
  2  1  2  0  0  0
  2  3  1  0  0  0
  1  6  1  0  0  0
 11  9  1  0  0  0
  7  3  1  0  0  0
  9 10  1  0  0  0
  3  4  2  0  0  0
  6 10  1  0  0  0
  6  5  2  0  0  0
  4  5  1  0  0  0
 11 12  1  0  0  0
 11 13  1  0  0  0
M  END
> <minimizedAffinity>
-4.95068

$$$$
4QP2_36R_A_401


 13 14  0  0  0  0  0  0  0  0999 V2000
  -16.0135  -37.0823  -27.4757 C   0  0  0  0  0  0  0  0  0  0  0  0
  -16.7135  -36.3953  -26.4862 C   0  0  0  0  0  0  0  0  0  0  0  0
  -17.3553  -35.2038  -26.7814 C   0  0  0  0  0  0  0  0  0  0  0  0
  -17.3233  -34.6791  -28.0698 C   0  0  0  0  0  0  0  0  0  0  0  0
  -16.6406  -35.3479  -29.0669 C   0  0  0  0  0  0  0  0  0  0  0  0
  -15.9855  -36.5380  -28.7800 C   0  0  0  0  0  0  0  0  0  0  0  0
  -18.2042  -34.3581  -25.5211 Cl  0  0  0  0  0  0  0  0  0  0  0  0
  -15.2871  -38.2447  -27.4982 N   0  0  0  0  0  0  0  0  0  0  0  0
  -14.8373  -38.3914  -28.7364 C   0  0  0  0  0  0  0  0  0  0  0  0
  -15.2508  -37.3862  -29.5322 O   0  0  0  0  0  0  0  0  0  0  0  0
  -14.0702  -39.4161  -29.2135 N   0  0  0  0  0  0  0  0  0  0  0  0
  -13.7821  -40.1380  -28.6093 H   0  0  0  0  0  0  0  0  0  0  0  0
  -13.8055  -39.4328  -30.1616 H   0  0  0  0  0  0  0  0  0  0  0  0
  8  1  1  0  0  0
  8  9  2  0  0  0
  2  1  2  0  0  0
  2  3  1  0  0  0
  1  6  1  0  0  0
 11  9  1  0  0  0
  7  3  1  0  0  0
  9 10  1  0  0  0
  3  4  2  0  0  0
  6 10  1  0  0  0
  6  5  2  0  0  0
  4  5  1  0  0  0
 11 12  1  0  0  0
 11 13  1  0  0  0
M  END
> <minimizedAffinity>
-4.94945

$$$$
4QP2_36R_A_401


 13 14  0  0  0  0  0  0  0  0999 V2000
  -16.1434  -36.2170  -25.5553 C   0  0  0  0  0  0  0  0  0  0  0  0
  -16.4180  -37.5742  -25.4014 C   0  0  0  0  0  0  0  0  0  0  0  0
  -17.1875  -38.2437  -26.3385 C   0  0  0  0  0  0  0  0  0  0  0  0
  -17.6883  -37.5786  -27.4535 C   0  0  0  0  0  0  0  0  0  0  0  0
  -17.4221  -36.2347  -27.6284 C   0  0  0  0  0  0  0  0  0  0  0  0
  -16.6600  -35.5514  -26.6902 C   0  0  0  0  0  0  0  0  0  0  0  0
  -17.5308  -39.9331  -26.1094 Cl  0  0  0  0  0  0  0  0  0  0  0  0
  -15.4434  -35.2958  -24.8199 N   0  0  0  0  0  0  0  0  0  0  0  0
  -15.5382  -34.1406  -25.4629 C   0  0  0  0  0  0  0  0  0  0  0  0
  -16.2544  -34.2661  -26.5968 O   0  0  0  0  0  0  0  0  0  0  0  0
  -14.9862  -32.9478  -25.0903 N   0  0  0  0  0  0  0  0  0  0  0  0
  -14.4673  -32.8847  -24.2560 H   0  0  0  0  0  0  0  0  0  0  0  0
  -15.1073  -32.1513  -25.6561 H   0  0  0  0  0  0  0  0  0  0  0  0
  8  1  1  0  0  0
  8  9  2  0  0  0
  2  1  2  0  0  0
  2  3  1  0  0  0
  1  6  1  0  0  0
 11  9  1  0  0  0
  7  3  1  0  0  0
  9 10  1  0  0  0
  3  4  2  0  0  0
  6 10  1  0  0  0
  6  5  2  0  0  0
  4  5  1  0  0  0
 11 12  1  0  0  0
 11 13  1  0  0  0
M  END
> <minimizedAffinity>
-4.93689

$$$$
4QP2_36R_A_401


 13 14  0  0  0  0  0  0  0  0999 V2000
  -16.5486  -36.7518  -25.9094 C   0  0  0  0  0  0  0  0  0  0  0  0
  -16.6212  -35.4421  -26.3791 C   0  0  0  0  0  0  0  0  0  0  0  0
  -17.2130  -35.1682  -27.6011 C   0  0  0  0  0  0  0  0  0  0  0  0
  -17.7550  -36.1907  -28.3738 C   0  0  0  0  0  0  0  0  0  0  0  0
  -17.6994  -37.4952  -27.9233 C   0  0  0  0  0  0  0  0  0  0  0  0
  -17.0998  -37.7824  -26.7044 C   0  0  0  0  0  0  0  0  0  0  0  0
  -17.2711  -33.5262  -28.1710 Cl  0  0  0  0  0  0  0  0  0  0  0  0
  -16.0327  -37.3331  -24.7801 N   0  0  0  0  0  0  0  0  0  0  0  0
  -16.2479  -38.6366  -24.8879 C   0  0  0  0  0  0  0  0  0  0  0  0
  -16.8978  -38.9351  -26.0294 O   0  0  0  0  0  0  0  0  0  0  0  0
  -15.9019  -39.6016  -23.9850 N   0  0  0  0  0  0  0  0  0  0  0  0
  -15.4271  -39.3550  -23.1586 H   0  0  0  0  0  0  0  0  0  0  0  0
  -16.1274  -40.5437  -24.1607 H   0  0  0  0  0  0  0  0  0  0  0  0
  8  1  1  0  0  0
  8  9  2  0  0  0
  2  1  2  0  0  0
  2  3  1  0  0  0
  1  6  1  0  0  0
 11  9  1  0  0  0
  7  3  1  0  0  0
  9 10  1  0  0  0
  3  4  2  0  0  0
  6 10  1  0  0  0
  6  5  2  0  0  0
  4  5  1  0  0  0
 11 12  1  0  0  0
 11 13  1  0  0  0
M  END
> <minimizedAffinity>
-4.85591

$$$$
