3IOD_A6D_A_302


 34 37  0  0  0  0  0  0  0  0999 V2000
   12.3987    8.1789    1.9057 O   0  0  0  0  0  0  0  0  0  0  0  0
   14.2637    7.1850    0.1036 O   0  0  0  0  0  0  0  0  0  0  0  0
   13.5910   10.7206    0.6820 O   0  0  0  0  0  0  0  0  0  0  0  0
   13.7357    8.6932    1.9691 C   0  0  0  0  0  0  0  0  0  0  0  0
   14.4046    8.5248    0.6143 C   0  0  0  0  0  0  0  0  0  0  0  0
   13.7035   10.2284    2.0726 C   0  0  0  0  0  0  0  0  0  0  0  0
   13.5915    9.5496   -0.1895 C   0  0  0  0  0  0  0  0  0  0  0  0
   12.4272    7.2115    1.8407 H   0  0  0  0  0  0  0  0  0  0  0  0
   14.7936    6.5764    0.6420 H   0  0  0  0  0  0  0  0  0  0  0  0
   13.2997    9.6449   -5.3392 N   0  0  0  0  0  0  0  0  0  0  0  0
   12.3327    9.3685   -4.4628 C   0  0  0  0  0  0  0  0  0  0  0  0
   12.5663    9.3860   -3.1505 N   0  0  0  0  0  0  0  0  0  0  0  0
   13.7920    9.6908   -2.6726 C   0  0  0  0  0  0  0  0  0  0  0  0
   14.8205    9.9790   -3.5581 C   0  0  0  0  0  0  0  0  0  0  0  0
   14.5523    9.9451   -4.9241 C   0  0  0  0  0  0  0  0  0  0  0  0
   15.5208   10.2082   -5.8011 N   0  0  0  0  0  0  0  0  0  0  0  0
   15.9060   10.2343   -2.8364 N   0  0  0  0  0  0  0  0  0  0  0  0
   15.5820   10.1182   -1.5501 C   0  0  0  0  0  0  0  0  0  0  0  0
   14.3027    9.7898   -1.4454 N   0  0  0  0  0  0  0  0  0  0  0  0
   15.3304   10.1841   -6.7667 H   0  0  0  0  0  0  0  0  0  0  0  0
   16.4266   10.4268   -5.4833 H   0  0  0  0  0  0  0  0  0  0  0  0
   15.0239   10.7648    2.7007 C   0  0  0  0  0  0  0  0  0  0  0  0
   16.2148    9.4430    3.1376 S   0  0  0  0  0  0  0  0  0  0  0  0
   15.9982    9.2099    5.1595 S   0  0  0  0  0  0  0  0  0  0  0  0
   14.2513    9.4941    5.5292 C   0  0  0  0  0  0  0  0  0  0  0  0
   14.3388    8.2168    9.0308 C   0  0  0  0  0  0  0  0  0  0  0  0
   14.4856    8.2560    7.6555 C   0  0  0  0  0  0  0  0  0  0  0  0
   13.8370    9.2866    9.7724 C   0  0  0  0  0  0  0  0  0  0  0  0
   13.5922   10.5107    7.7410 C   0  0  0  0  0  0  0  0  0  0  0  0
   14.0935    9.4189    7.0232 C   0  0  0  0  0  0  0  0  0  0  0  0
   13.4586   10.4440    9.1264 C   0  0  0  0  0  0  0  0  0  0  0  0
   11.8925   12.2174    9.3358 O   0  0  0  0  0  0  0  0  0  0  0  0
   13.5159   11.7801   11.1085 O   0  0  0  0  0  0  0  0  0  0  0  0
   12.9711   11.4592    9.8438 N   0  0  0  0  0  0  0  0  0  0  0  0
 10 11  2  0  0  0
 10 15  1  0  0  0
 11 12  1  0  0  0
 12 13  2  0  0  0
 13 14  1  0  0  0
 13 19  1  0  0  0
 14 15  2  0  0  0
 14 17  1  0  0  0
 15 16  1  0  0  0
 17 18  2  0  0  0
 18 19  1  0  0  0
 19  7  1  0  0  0
 32 34  2  0  0  0
  1  4  1  0  0  0
  2  5  1  0  0  0
 33 34  1  0  0  0
 26 27  2  0  0  0
 26 28  1  0  0  0
 27 30  1  0  0  0
 28 31  2  0  0  0
 29 30  2  0  0  0
 29 31  1  0  0  0
 25 24  1  0  0  0
 25 30  1  0  0  0
 22 23  1  0  0  0
 22  6  1  0  0  0
  3  6  1  0  0  0
  3  7  1  0  0  0
 24 23  1  0  0  0
 31 34  1  0  0  0
  4  5  1  0  0  0
  4  6  1  0  0  0
  5  7  1  0  0  0
 16 20  1  0  0  0
 16 21  1  0  0  0
  1  8  1  0  0  0
  2  9  1  0  0  0
M  CHG 1  33  -1
M  CHG 1  34   1
M  END
> <minimizedAffinity>
-11.28732

$$$$
3IOD_A6D_A_302


 34 37  0  0  0  0  0  0  0  0999 V2000
   12.3653    8.2517    1.9810 O   0  0  0  0  0  0  0  0  0  0  0  0
   14.2486    7.2276    0.2152 O   0  0  0  0  0  0  0  0  0  0  0  0
   13.5641   10.7721    0.7204 O   0  0  0  0  0  0  0  0  0  0  0  0
   13.7007    8.7697    2.0469 C   0  0  0  0  0  0  0  0  0  0  0  0
   14.3823    8.5771    0.7017 C   0  0  0  0  0  0  0  0  0  0  0  0
   13.6648   10.3066    2.1210 C   0  0  0  0  0  0  0  0  0  0  0  0
   13.5748    9.5849   -0.1288 C   0  0  0  0  0  0  0  0  0  0  0  0
   12.3961    7.2833    1.9346 H   0  0  0  0  0  0  0  0  0  0  0  0
   14.7746    6.6303    0.7698 H   0  0  0  0  0  0  0  0  0  0  0  0
   13.3259    9.5973   -5.2816 N   0  0  0  0  0  0  0  0  0  0  0  0
   12.3508    9.3378   -4.4089 C   0  0  0  0  0  0  0  0  0  0  0  0
   12.5736    9.3761   -3.0952 N   0  0  0  0  0  0  0  0  0  0  0  0
   13.7962    9.6852   -2.6121 C   0  0  0  0  0  0  0  0  0  0  0  0
   14.8328    9.9562   -3.4936 C   0  0  0  0  0  0  0  0  0  0  0  0
   14.5759    9.9009   -4.8610 C   0  0  0  0  0  0  0  0  0  0  0  0
   15.5523   10.1470   -5.7341 N   0  0  0  0  0  0  0  0  0  0  0  0
   15.9130   10.2202   -2.7671 N   0  0  0  0  0  0  0  0  0  0  0  0
   15.5781   10.1259   -1.4818 C   0  0  0  0  0  0  0  0  0  0  0  0
   14.2970    9.8027   -1.3825 N   0  0  0  0  0  0  0  0  0  0  0  0
   15.3698   10.1077   -6.7007 H   0  0  0  0  0  0  0  0  0  0  0  0
   16.4560   10.3683   -5.4123 H   0  0  0  0  0  0  0  0  0  0  0  0
   14.9783   10.8574    2.7509 C   0  0  0  0  0  0  0  0  0  0  0  0
   14.9927   10.7952    4.5818 S   0  0  0  0  0  0  0  0  0  0  0  0
   15.4230    8.8432    5.0220 S   0  0  0  0  0  0  0  0  0  0  0  0
   16.8767    8.8633    6.0970 C   0  0  0  0  0  0  0  0  0  0  0  0
   20.0512    7.2985    4.9246 C   0  0  0  0  0  0  0  0  0  0  0  0
   18.9703    7.6008    5.7338 C   0  0  0  0  0  0  0  0  0  0  0  0
   20.2405    7.8681    3.6652 C   0  0  0  0  0  0  0  0  0  0  0  0
   18.2277    9.1064    3.9814 C   0  0  0  0  0  0  0  0  0  0  0  0
   18.0674    8.5228    5.2433 C   0  0  0  0  0  0  0  0  0  0  0  0
   19.3247    8.7803    3.1865 C   0  0  0  0  0  0  0  0  0  0  0  0
   20.2480    8.6153    1.0043 O   0  0  0  0  0  0  0  0  0  0  0  0
   18.9989   10.6048    1.6759 O   0  0  0  0  0  0  0  0  0  0  0  0
   19.5193    9.3267    1.9838 N   0  0  0  0  0  0  0  0  0  0  0  0
 10 11  2  0  0  0
 10 15  1  0  0  0
 11 12  1  0  0  0
 12 13  2  0  0  0
 13 14  1  0  0  0
 13 19  1  0  0  0
 14 15  2  0  0  0
 14 17  1  0  0  0
 15 16  1  0  0  0
 17 18  2  0  0  0
 18 19  1  0  0  0
 19  7  1  0  0  0
 32 34  2  0  0  0
  1  4  1  0  0  0
  2  5  1  0  0  0
 33 34  1  0  0  0
 26 27  2  0  0  0
 26 28  1  0  0  0
 27 30  1  0  0  0
 28 31  2  0  0  0
 29 30  2  0  0  0
 29 31  1  0  0  0
 25 24  1  0  0  0
 25 30  1  0  0  0
 22 23  1  0  0  0
 22  6  1  0  0  0
  3  6  1  0  0  0
  3  7  1  0  0  0
 24 23  1  0  0  0
 31 34  1  0  0  0
  4  5  1  0  0  0
  4  6  1  0  0  0
  5  7  1  0  0  0
 16 20  1  0  0  0
 16 21  1  0  0  0
  1  8  1  0  0  0
  2  9  1  0  0  0
M  CHG 1  33  -1
M  CHG 1  34   1
M  END
> <minimizedAffinity>
-10.52423

$$$$
3IOD_A6D_A_302


 34 37  0  0  0  0  0  0  0  0999 V2000
   18.1409   10.1581    0.4587 O   0  0  0  0  0  0  0  0  0  0  0  0
   16.8030   11.4905   -1.5780 O   0  0  0  0  0  0  0  0  0  0  0  0
   15.2255    9.3300    0.8982 O   0  0  0  0  0  0  0  0  0  0  0  0
   17.0000   10.9521    0.8105 C   0  0  0  0  0  0  0  0  0  0  0  0
   16.0856   11.0823   -0.3971 C   0  0  0  0  0  0  0  0  0  0  0  0
   16.0860   10.1640    1.7656 C   0  0  0  0  0  0  0  0  0  0  0  0
   15.5859    9.6330   -0.4835 C   0  0  0  0  0  0  0  0  0  0  0  0
   18.7118   10.6612   -0.1430 H   0  0  0  0  0  0  0  0  0  0  0  0
   17.0972   12.4092   -1.4762 H   0  0  0  0  0  0  0  0  0  0  0  0
   13.9344    9.6408   -5.3708 N   0  0  0  0  0  0  0  0  0  0  0  0
   15.1915    9.6402   -4.9245 C   0  0  0  0  0  0  0  0  0  0  0  0
   15.4593    9.6371   -3.6187 N   0  0  0  0  0  0  0  0  0  0  0  0
   14.4601    9.6289   -2.7102 C   0  0  0  0  0  0  0  0  0  0  0  0
   13.1415    9.6334   -3.1419 C   0  0  0  0  0  0  0  0  0  0  0  0
   12.8891    9.6456   -4.5113 C   0  0  0  0  0  0  0  0  0  0  0  0
   11.6336    9.6594   -4.9583 N   0  0  0  0  0  0  0  0  0  0  0  0
   12.3698    9.6303   -2.0608 N   0  0  0  0  0  0  0  0  0  0  0  0
   13.1611    9.6196   -0.9899 C   0  0  0  0  0  0  0  0  0  0  0  0
   14.4280    9.6181   -1.3778 N   0  0  0  0  0  0  0  0  0  0  0  0
   11.4560    9.6680   -5.9266 H   0  0  0  0  0  0  0  0  0  0  0  0
   10.8839    9.6609   -4.3203 H   0  0  0  0  0  0  0  0  0  0  0  0
   15.1920   11.1327    2.5951 C   0  0  0  0  0  0  0  0  0  0  0  0
   13.4656   10.5502    2.7863 S   0  0  0  0  0  0  0  0  0  0  0  0
   13.5524    9.1918    4.3149 S   0  0  0  0  0  0  0  0  0  0  0  0
   14.9202    9.7005    5.3824 C   0  0  0  0  0  0  0  0  0  0  0  0
   14.2482    8.0042    8.6337 C   0  0  0  0  0  0  0  0  0  0  0  0
   14.6439    8.1929    7.3213 C   0  0  0  0  0  0  0  0  0  0  0  0
   13.7286    9.0284    9.4256 C   0  0  0  0  0  0  0  0  0  0  0  0
   13.9762   10.5120    7.5756 C   0  0  0  0  0  0  0  0  0  0  0  0
   14.4888    9.4632    6.8037 C   0  0  0  0  0  0  0  0  0  0  0  0
   13.5889   10.2934    8.8962 C   0  0  0  0  0  0  0  0  0  0  0  0
   13.6822   11.5583   10.9044 O   0  0  0  0  0  0  0  0  0  0  0  0
   11.9579   12.0091    9.2332 O   0  0  0  0  0  0  0  0  0  0  0  0
   13.0823   11.2651    9.6592 N   0  0  0  0  0  0  0  0  0  0  0  0
 10 11  2  0  0  0
 10 15  1  0  0  0
 11 12  1  0  0  0
 12 13  2  0  0  0
 13 14  1  0  0  0
 13 19  1  0  0  0
 14 15  2  0  0  0
 14 17  1  0  0  0
 15 16  1  0  0  0
 17 18  2  0  0  0
 18 19  1  0  0  0
 19  7  1  0  0  0
 32 34  2  0  0  0
  1  4  1  0  0  0
  2  5  1  0  0  0
 33 34  1  0  0  0
 26 27  2  0  0  0
 26 28  1  0  0  0
 27 30  1  0  0  0
 28 31  2  0  0  0
 29 30  2  0  0  0
 29 31  1  0  0  0
 25 24  1  0  0  0
 25 30  1  0  0  0
 22 23  1  0  0  0
 22  6  1  0  0  0
  3  6  1  0  0  0
  3  7  1  0  0  0
 24 23  1  0  0  0
 31 34  1  0  0  0
  4  5  1  0  0  0
  4  6  1  0  0  0
  5  7  1  0  0  0
 16 20  1  0  0  0
 16 21  1  0  0  0
  1  8  1  0  0  0
  2  9  1  0  0  0
M  CHG 1  33  -1
M  CHG 1  34   1
M  END
> <minimizedAffinity>
-10.39092

$$$$
3IOD_A6D_A_302


 34 37  0  0  0  0  0  0  0  0999 V2000
   19.9681    9.1366    4.7420 O   0  0  0  0  0  0  0  0  0  0  0  0
   17.7521    7.4624    4.7317 O   0  0  0  0  0  0  0  0  0  0  0  0
   17.8446   10.8198    3.3150 O   0  0  0  0  0  0  0  0  0  0  0  0
   19.3002    8.9126    3.4932 C   0  0  0  0  0  0  0  0  0  0  0  0
   17.8557    8.5195    3.7583 C   0  0  0  0  0  0  0  0  0  0  0  0
   19.0926   10.2504    2.7612 C   0  0  0  0  0  0  0  0  0  0  0  0
   17.3298    9.8612    4.2881 C   0  0  0  0  0  0  0  0  0  0  0  0
   20.0952    8.2895    5.1971 H   0  0  0  0  0  0  0  0  0  0  0  0
   18.0953    6.6384    4.3520 H   0  0  0  0  0  0  0  0  0  0  0  0
   13.1012    8.4370    1.6990 N   0  0  0  0  0  0  0  0  0  0  0  0
   14.3772    8.2977    1.3358 C   0  0  0  0  0  0  0  0  0  0  0  0
   15.3675    8.7196    2.1221 N   0  0  0  0  0  0  0  0  0  0  0  0
   15.1031    9.2964    3.3142 C   0  0  0  0  0  0  0  0  0  0  0  0
   13.7862    9.4597    3.7193 C   0  0  0  0  0  0  0  0  0  0  0  0
   12.7702    9.0184    2.8754 C   0  0  0  0  0  0  0  0  0  0  0  0
   11.4947    9.1688    3.2312 N   0  0  0  0  0  0  0  0  0  0  0  0
   13.8070   10.0504    4.9088 N   0  0  0  0  0  0  0  0  0  0  0  0
   15.0792   10.2499    5.2474 C   0  0  0  0  0  0  0  0  0  0  0  0
   15.8682    9.7944    4.2853 N   0  0  0  0  0  0  0  0  0  0  0  0
   10.7770    8.8565    2.6340 H   0  0  0  0  0  0  0  0  0  0  0  0
   11.2701    9.5921    4.0912 H   0  0  0  0  0  0  0  0  0  0  0  0
   18.9153   10.0183    1.2314 C   0  0  0  0  0  0  0  0  0  0  0  0
   18.6827   11.5664    0.2797 S   0  0  0  0  0  0  0  0  0  0  0  0
   16.7024   11.5540   -0.2374 S   0  0  0  0  0  0  0  0  0  0  0  0
   16.5839   10.6735   -1.8121 C   0  0  0  0  0  0  0  0  0  0  0  0
   12.8867   10.5310   -1.3528 C   0  0  0  0  0  0  0  0  0  0  0  0
   14.2173   10.8276   -1.1160 C   0  0  0  0  0  0  0  0  0  0  0  0
   12.4555    9.8082   -2.4654 C   0  0  0  0  0  0  0  0  0  0  0  0
   14.7277    9.6348   -3.1669 C   0  0  0  0  0  0  0  0  0  0  0  0
   15.1308   10.3574   -2.0382 C   0  0  0  0  0  0  0  0  0  0  0  0
   13.3798    9.3538   -3.3814 C   0  0  0  0  0  0  0  0  0  0  0  0
   12.2715    9.3155   -5.4819 O   0  0  0  0  0  0  0  0  0  0  0  0
   13.1972    7.2646   -4.5299 O   0  0  0  0  0  0  0  0  0  0  0  0
   12.9583    8.6552   -4.4384 N   0  0  0  0  0  0  0  0  0  0  0  0
 10 11  2  0  0  0
 10 15  1  0  0  0
 11 12  1  0  0  0
 12 13  2  0  0  0
 13 14  1  0  0  0
 13 19  1  0  0  0
 14 15  2  0  0  0
 14 17  1  0  0  0
 15 16  1  0  0  0
 17 18  2  0  0  0
 18 19  1  0  0  0
 19  7  1  0  0  0
 32 34  2  0  0  0
  1  4  1  0  0  0
  2  5  1  0  0  0
 33 34  1  0  0  0
 26 27  2  0  0  0
 26 28  1  0  0  0
 27 30  1  0  0  0
 28 31  2  0  0  0
 29 30  2  0  0  0
 29 31  1  0  0  0
 25 24  1  0  0  0
 25 30  1  0  0  0
 22 23  1  0  0  0
 22  6  1  0  0  0
  3  6  1  0  0  0
  3  7  1  0  0  0
 24 23  1  0  0  0
 31 34  1  0  0  0
  4  5  1  0  0  0
  4  6  1  0  0  0
  5  7  1  0  0  0
 16 20  1  0  0  0
 16 21  1  0  0  0
  1  8  1  0  0  0
  2  9  1  0  0  0
M  CHG 1  33  -1
M  CHG 1  34   1
M  END
> <minimizedAffinity>
-9.34709

$$$$
3IOD_A6D_A_302


 34 37  0  0  0  0  0  0  0  0999 V2000
   20.1728    8.8717    3.9949 O   0  0  0  0  0  0  0  0  0  0  0  0
   17.8623    7.4278    4.5340 O   0  0  0  0  0  0  0  0  0  0  0  0
   17.9643   10.9691    3.6757 O   0  0  0  0  0  0  0  0  0  0  0  0
   19.0989    8.9428    3.0476 C   0  0  0  0  0  0  0  0  0  0  0  0
   17.7865    8.6344    3.7503 C   0  0  0  0  0  0  0  0  0  0  0  0
   18.8559   10.4063    2.6380 C   0  0  0  0  0  0  0  0  0  0  0  0
   17.6719    9.8948    4.6196 C   0  0  0  0  0  0  0  0  0  0  0  0
   20.3199    7.9469    4.2481 H   0  0  0  0  0  0  0  0  0  0  0  0
   17.9332    6.6622    3.9427 H   0  0  0  0  0  0  0  0  0  0  0  0
   14.3019    8.1379    8.1081 N   0  0  0  0  0  0  0  0  0  0  0  0
   15.5896    7.8178    7.9706 C   0  0  0  0  0  0  0  0  0  0  0  0
   16.3366    8.3634    7.0107 N   0  0  0  0  0  0  0  0  0  0  0  0
   15.8077    9.2622    6.1527 C   0  0  0  0  0  0  0  0  0  0  0  0
   14.4702    9.6134    6.2666 C   0  0  0  0  0  0  0  0  0  0  0  0
   13.7098    9.0223    7.2722 C   0  0  0  0  0  0  0  0  0  0  0  0
   12.4199    9.3313    7.4026 N   0  0  0  0  0  0  0  0  0  0  0  0
   14.2088   10.4967    5.3097 N   0  0  0  0  0  0  0  0  0  0  0  0
   15.3299   10.7019    4.6211 C   0  0  0  0  0  0  0  0  0  0  0  0
   16.3014    9.9571    5.1280 N   0  0  0  0  0  0  0  0  0  0  0  0
   11.8830    8.9130    8.1138 H   0  0  0  0  0  0  0  0  0  0  0  0
   12.0041    9.9780    6.7876 H   0  0  0  0  0  0  0  0  0  0  0  0
   18.1428   10.4790    1.2553 C   0  0  0  0  0  0  0  0  0  0  0  0
   16.4883   11.2624    1.3269 S   0  0  0  0  0  0  0  0  0  0  0  0
   15.1791    9.7150    1.0423 S   0  0  0  0  0  0  0  0  0  0  0  0
   13.8352   10.3559    0.0165 C   0  0  0  0  0  0  0  0  0  0  0  0
   15.7980   10.3901   -3.1531 C   0  0  0  0  0  0  0  0  0  0  0  0
   15.4578   10.6114   -1.8303 C   0  0  0  0  0  0  0  0  0  0  0  0
   14.9687    9.7140   -4.0483 C   0  0  0  0  0  0  0  0  0  0  0  0
   13.3768    9.4518   -2.2927 C   0  0  0  0  0  0  0  0  0  0  0  0
   14.2276   10.1388   -1.4193 C   0  0  0  0  0  0  0  0  0  0  0  0
   13.7474    9.2404   -3.6193 C   0  0  0  0  0  0  0  0  0  0  0  0
   12.0686    9.3444   -5.2963 O   0  0  0  0  0  0  0  0  0  0  0  0
   13.0026    7.1945   -4.6075 O   0  0  0  0  0  0  0  0  0  0  0  0
   12.9567    8.6024   -4.4857 N   0  0  0  0  0  0  0  0  0  0  0  0
 10 11  2  0  0  0
 10 15  1  0  0  0
 11 12  1  0  0  0
 12 13  2  0  0  0
 13 14  1  0  0  0
 13 19  1  0  0  0
 14 15  2  0  0  0
 14 17  1  0  0  0
 15 16  1  0  0  0
 17 18  2  0  0  0
 18 19  1  0  0  0
 19  7  1  0  0  0
 32 34  2  0  0  0
  1  4  1  0  0  0
  2  5  1  0  0  0
 33 34  1  0  0  0
 26 27  2  0  0  0
 26 28  1  0  0  0
 27 30  1  0  0  0
 28 31  2  0  0  0
 29 30  2  0  0  0
 29 31  1  0  0  0
 25 24  1  0  0  0
 25 30  1  0  0  0
 22 23  1  0  0  0
 22  6  1  0  0  0
  3  6  1  0  0  0
  3  7  1  0  0  0
 24 23  1  0  0  0
 31 34  1  0  0  0
  4  5  1  0  0  0
  4  6  1  0  0  0
  5  7  1  0  0  0
 16 20  1  0  0  0
 16 21  1  0  0  0
  1  8  1  0  0  0
  2  9  1  0  0  0
M  CHG 1  33  -1
M  CHG 1  34   1
M  END
> <minimizedAffinity>
-8.82565

$$$$
3IOD_A6D_A_302


 34 37  0  0  0  0  0  0  0  0999 V2000
   14.8038    7.7957    1.9906 O   0  0  0  0  0  0  0  0  0  0  0  0
   13.1192    9.6509    3.1881 O   0  0  0  0  0  0  0  0  0  0  0  0
   16.4581    8.7879    4.3692 O   0  0  0  0  0  0  0  0  0  0  0  0
   15.3292    9.1007    2.2679 C   0  0  0  0  0  0  0  0  0  0  0  0
   14.5412    9.7292    3.4060 C   0  0  0  0  0  0  0  0  0  0  0  0
   16.7156    8.9800    2.9251 C   0  0  0  0  0  0  0  0  0  0  0  0
   15.0110    8.8275    4.5565 C   0  0  0  0  0  0  0  0  0  0  0  0
   13.9306    7.8800    1.5768 H   0  0  0  0  0  0  0  0  0  0  0  0
   12.8718   10.2355    2.4547 H   0  0  0  0  0  0  0  0  0  0  0  0
   14.4990    8.3341    9.6661 N   0  0  0  0  0  0  0  0  0  0  0  0
   14.9385    7.4296    8.7896 C   0  0  0  0  0  0  0  0  0  0  0  0
   15.0146    7.7107    7.4888 N   0  0  0  0  0  0  0  0  0  0  0  0
   14.6524    8.9257    7.0238 C   0  0  0  0  0  0  0  0  0  0  0  0
   14.1872    9.8874    7.9092 C   0  0  0  0  0  0  0  0  0  0  0  0
   14.1090    9.5653    9.2617 C   0  0  0  0  0  0  0  0  0  0  0  0
   13.6579   10.4637   10.1366 N   0  0  0  0  0  0  0  0  0  0  0  0
   13.8981   10.9729    7.2004 N   0  0  0  0  0  0  0  0  0  0  0  0
   14.1710   10.7154    5.9228 C   0  0  0  0  0  0  0  0  0  0  0  0
   14.6288    9.4771    5.8106 N   0  0  0  0  0  0  0  0  0  0  0  0
   13.6029   10.2352   11.0927 H   0  0  0  0  0  0  0  0  0  0  0  0
   13.3796   11.3558    9.8270 H   0  0  0  0  0  0  0  0  0  0  0  0
   17.5367   10.2875    2.7205 C   0  0  0  0  0  0  0  0  0  0  0  0
   18.3215   10.4064    1.0694 S   0  0  0  0  0  0  0  0  0  0  0  0
   16.9995   11.5012   -0.0456 S   0  0  0  0  0  0  0  0  0  0  0  0
   16.8641   10.6740   -1.6476 C   0  0  0  0  0  0  0  0  0  0  0  0
   13.1730   10.5084   -1.1496 C   0  0  0  0  0  0  0  0  0  0  0  0
   14.5064   10.7945   -0.9159 C   0  0  0  0  0  0  0  0  0  0  0  0
   12.7280    9.8374   -2.2888 C   0  0  0  0  0  0  0  0  0  0  0  0
   14.9913    9.6978   -3.0257 C   0  0  0  0  0  0  0  0  0  0  0  0
   15.4084   10.3679   -1.8700 C   0  0  0  0  0  0  0  0  0  0  0  0
   13.6408    9.4262   -3.2363 C   0  0  0  0  0  0  0  0  0  0  0  0
   12.6310    9.5047   -5.3847 O   0  0  0  0  0  0  0  0  0  0  0  0
   13.3213    7.3708   -4.4154 O   0  0  0  0  0  0  0  0  0  0  0  0
   13.2062    8.7768   -4.3190 N   0  0  0  0  0  0  0  0  0  0  0  0
 10 11  2  0  0  0
 10 15  1  0  0  0
 11 12  1  0  0  0
 12 13  2  0  0  0
 13 14  1  0  0  0
 13 19  1  0  0  0
 14 15  2  0  0  0
 14 17  1  0  0  0
 15 16  1  0  0  0
 17 18  2  0  0  0
 18 19  1  0  0  0
 19  7  1  0  0  0
 32 34  2  0  0  0
  1  4  1  0  0  0
  2  5  1  0  0  0
 33 34  1  0  0  0
 26 27  2  0  0  0
 26 28  1  0  0  0
 27 30  1  0  0  0
 28 31  2  0  0  0
 29 30  2  0  0  0
 29 31  1  0  0  0
 25 24  1  0  0  0
 25 30  1  0  0  0
 22 23  1  0  0  0
 22  6  1  0  0  0
  3  6  1  0  0  0
  3  7  1  0  0  0
 24 23  1  0  0  0
 31 34  1  0  0  0
  4  5  1  0  0  0
  4  6  1  0  0  0
  5  7  1  0  0  0
 16 20  1  0  0  0
 16 21  1  0  0  0
  1  8  1  0  0  0
  2  9  1  0  0  0
M  CHG 1  33  -1
M  CHG 1  34   1
M  END
> <minimizedAffinity>
-8.82114

$$$$
3IOD_A6D_A_302


 34 37  0  0  0  0  0  0  0  0999 V2000
   12.0810    9.1643    3.6451 O   0  0  0  0  0  0  0  0  0  0  0  0
   13.0333    7.6010    1.5564 O   0  0  0  0  0  0  0  0  0  0  0  0
   13.6213   11.1792    1.9287 O   0  0  0  0  0  0  0  0  0  0  0  0
   13.4795    9.2335    3.3366 C   0  0  0  0  0  0  0  0  0  0  0  0
   13.6949    8.8381    1.8845 C   0  0  0  0  0  0  0  0  0  0  0  0
   13.9357   10.7028    3.2935 C   0  0  0  0  0  0  0  0  0  0  0  0
   13.0472   10.0512    1.2015 C   0  0  0  0  0  0  0  0  0  0  0  0
   11.8011    8.2359    3.6705 H   0  0  0  0  0  0  0  0  0  0  0  0
   13.4768    6.8670    2.0096 H   0  0  0  0  0  0  0  0  0  0  0  0
   16.8601   10.8251   -2.1862 N   0  0  0  0  0  0  0  0  0  0  0  0
   16.9000   10.9420   -0.8579 C   0  0  0  0  0  0  0  0  0  0  0  0
   15.8206   10.7048   -0.1125 N   0  0  0  0  0  0  0  0  0  0  0  0
   14.6554   10.3331   -0.6853 C   0  0  0  0  0  0  0  0  0  0  0  0
   14.5798   10.2066   -2.0648 C   0  0  0  0  0  0  0  0  0  0  0  0
   15.7193   10.4687   -2.8211 C   0  0  0  0  0  0  0  0  0  0  0  0
   15.6773   10.3651   -4.1491 N   0  0  0  0  0  0  0  0  0  0  0  0
   13.3379    9.8415   -2.3626 N   0  0  0  0  0  0  0  0  0  0  0  0
   12.6555    9.7360   -1.2241 C   0  0  0  0  0  0  0  0  0  0  0  0
   13.4490   10.0321   -0.2052 N   0  0  0  0  0  0  0  0  0  0  0  0
   16.4833   10.5506   -4.6831 H   0  0  0  0  0  0  0  0  0  0  0  0
   14.8402   10.1030   -4.5962 H   0  0  0  0  0  0  0  0  0  0  0  0
   15.4711   10.8089    3.5323 C   0  0  0  0  0  0  0  0  0  0  0  0
   16.3593    9.2250    3.2905 S   0  0  0  0  0  0  0  0  0  0  0  0
   16.6284    8.4973    5.1845 S   0  0  0  0  0  0  0  0  0  0  0  0
   16.3818    9.8880    6.3133 C   0  0  0  0  0  0  0  0  0  0  0  0
   13.3695    8.1498    7.6567 C   0  0  0  0  0  0  0  0  0  0  0  0
   14.5083    8.3898    6.9083 C   0  0  0  0  0  0  0  0  0  0  0  0
   12.8626    9.0616    8.5829 C   0  0  0  0  0  0  0  0  0  0  0  0
   14.6538   10.5358    8.0321 C   0  0  0  0  0  0  0  0  0  0  0  0
   15.1353    9.6038    7.1057 C   0  0  0  0  0  0  0  0  0  0  0  0
   13.5060   10.2655    8.7746 C   0  0  0  0  0  0  0  0  0  0  0  0
   11.9450   11.9842    9.2755 O   0  0  0  0  0  0  0  0  0  0  0  0
   13.5268   11.2123   10.9700 O   0  0  0  0  0  0  0  0  0  0  0  0
   13.0083   11.1353    9.6569 N   0  0  0  0  0  0  0  0  0  0  0  0
 10 11  2  0  0  0
 10 15  1  0  0  0
 11 12  1  0  0  0
 12 13  2  0  0  0
 13 14  1  0  0  0
 13 19  1  0  0  0
 14 15  2  0  0  0
 14 17  1  0  0  0
 15 16  1  0  0  0
 17 18  2  0  0  0
 18 19  1  0  0  0
 19  7  1  0  0  0
 32 34  2  0  0  0
  1  4  1  0  0  0
  2  5  1  0  0  0
 33 34  1  0  0  0
 26 27  2  0  0  0
 26 28  1  0  0  0
 27 30  1  0  0  0
 28 31  2  0  0  0
 29 30  2  0  0  0
 29 31  1  0  0  0
 25 24  1  0  0  0
 25 30  1  0  0  0
 22 23  1  0  0  0
 22  6  1  0  0  0
  3  6  1  0  0  0
  3  7  1  0  0  0
 24 23  1  0  0  0
 31 34  1  0  0  0
  4  5  1  0  0  0
  4  6  1  0  0  0
  5  7  1  0  0  0
 16 20  1  0  0  0
 16 21  1  0  0  0
  1  8  1  0  0  0
  2  9  1  0  0  0
M  CHG 1  33  -1
M  CHG 1  34   1
M  END
> <minimizedAffinity>
-8.59771

$$$$
3IOD_A6D_A_302


 34 37  0  0  0  0  0  0  0  0999 V2000
   18.6943    6.8074    6.0704 O   0  0  0  0  0  0  0  0  0  0  0  0
   20.2988    8.8922    5.1800 O   0  0  0  0  0  0  0  0  0  0  0  0
   16.7824    8.4473    4.3288 O   0  0  0  0  0  0  0  0  0  0  0  0
   18.2121    8.1469    6.2402 C   0  0  0  0  0  0  0  0  0  0  0  0
   18.8673    9.0522    5.2094 C   0  0  0  0  0  0  0  0  0  0  0  0
   16.7423    8.2367    5.7925 C   0  0  0  0  0  0  0  0  0  0  0  0
   18.1885    8.5123    3.9424 C   0  0  0  0  0  0  0  0  0  0  0  0
   19.6205    6.7587    6.3545 H   0  0  0  0  0  0  0  0  0  0  0  0
   20.6806    9.2466    5.9982 H   0  0  0  0  0  0  0  0  0  0  0  0
   17.3220   13.2847    2.1855 N   0  0  0  0  0  0  0  0  0  0  0  0
   16.9045   12.7375    3.3283 C   0  0  0  0  0  0  0  0  0  0  0  0
   17.2148   11.4802    3.6441 N   0  0  0  0  0  0  0  0  0  0  0  0
   17.9677   10.7267    2.8139 C   0  0  0  0  0  0  0  0  0  0  0  0
   18.4142   11.2651    1.6157 C   0  0  0  0  0  0  0  0  0  0  0  0
   18.0687   12.5779    1.3056 C   0  0  0  0  0  0  0  0  0  0  0  0
   18.4741   13.1215    0.1583 N   0  0  0  0  0  0  0  0  0  0  0  0
   19.1173   10.3243    0.9952 N   0  0  0  0  0  0  0  0  0  0  0  0
   19.1219    9.2382    1.7656 C   0  0  0  0  0  0  0  0  0  0  0  0
   18.4275    9.4769    2.8685 N   0  0  0  0  0  0  0  0  0  0  0  0
   18.2294   14.0497   -0.0602 H   0  0  0  0  0  0  0  0  0  0  0  0
   19.0184   12.5948   -0.4707 H   0  0  0  0  0  0  0  0  0  0  0  0
   16.0358    9.4504    6.4657 C   0  0  0  0  0  0  0  0  0  0  0  0
   14.2621    9.1589    6.8200 S   0  0  0  0  0  0  0  0  0  0  0  0
   13.4091    8.9065    4.9766 S   0  0  0  0  0  0  0  0  0  0  0  0
   14.0369   10.2395    3.9287 C   0  0  0  0  0  0  0  0  0  0  0  0
   13.8257    7.9269    1.0120 C   0  0  0  0  0  0  0  0  0  0  0  0
   13.7780    8.3834    2.3173 C   0  0  0  0  0  0  0  0  0  0  0  0
   14.1548    8.7461   -0.0681 C   0  0  0  0  0  0  0  0  0  0  0  0
   14.4185   10.5601    1.4566 C   0  0  0  0  0  0  0  0  0  0  0  0
   14.0904    9.7126    2.5209 C   0  0  0  0  0  0  0  0  0  0  0  0
   14.4552   10.0734    0.1514 C   0  0  0  0  0  0  0  0  0  0  0  0
   13.8440   11.0391   -1.9307 O   0  0  0  0  0  0  0  0  0  0  0  0
   16.0387   11.4835   -0.9535 O   0  0  0  0  0  0  0  0  0  0  0  0
   14.7777   10.8474   -0.8877 N   0  0  0  0  0  0  0  0  0  0  0  0
 10 11  2  0  0  0
 10 15  1  0  0  0
 11 12  1  0  0  0
 12 13  2  0  0  0
 13 14  1  0  0  0
 13 19  1  0  0  0
 14 15  2  0  0  0
 14 17  1  0  0  0
 15 16  1  0  0  0
 17 18  2  0  0  0
 18 19  1  0  0  0
 19  7  1  0  0  0
 32 34  2  0  0  0
  1  4  1  0  0  0
  2  5  1  0  0  0
 33 34  1  0  0  0
 26 27  2  0  0  0
 26 28  1  0  0  0
 27 30  1  0  0  0
 28 31  2  0  0  0
 29 30  2  0  0  0
 29 31  1  0  0  0
 25 24  1  0  0  0
 25 30  1  0  0  0
 22 23  1  0  0  0
 22  6  1  0  0  0
  3  6  1  0  0  0
  3  7  1  0  0  0
 24 23  1  0  0  0
 31 34  1  0  0  0
  4  5  1  0  0  0
  4  6  1  0  0  0
  5  7  1  0  0  0
 16 20  1  0  0  0
 16 21  1  0  0  0
  1  8  1  0  0  0
  2  9  1  0  0  0
M  CHG 1  33  -1
M  CHG 1  34   1
M  END
> <minimizedAffinity>
-8.40242

$$$$
3IOD_A6D_A_302


 34 37  0  0  0  0  0  0  0  0999 V2000
   17.6782    6.8516    3.5291 O   0  0  0  0  0  0  0  0  0  0  0  0
   15.2384    8.1598    3.3070 O   0  0  0  0  0  0  0  0  0  0  0  0
   17.9484    9.1500    5.5349 O   0  0  0  0  0  0  0  0  0  0  0  0
   17.6923    8.2687    3.3110 C   0  0  0  0  0  0  0  0  0  0  0  0
   16.3875    8.8679    3.8108 C   0  0  0  0  0  0  0  0  0  0  0  0
   18.6902    8.9382    4.2726 C   0  0  0  0  0  0  0  0  0  0  0  0
   16.5878    8.6671    5.3198 C   0  0  0  0  0  0  0  0  0  0  0  0
   17.0475    6.4370    2.9199 H   0  0  0  0  0  0  0  0  0  0  0  0
   15.1542    8.3171    2.3535 H   0  0  0  0  0  0  0  0  0  0  0  0
   13.7377    9.2809    9.5758 N   0  0  0  0  0  0  0  0  0  0  0  0
   14.6286    8.3242    9.3101 C   0  0  0  0  0  0  0  0  0  0  0  0
   15.2920    8.3021    8.1541 N   0  0  0  0  0  0  0  0  0  0  0  0
   15.0819    9.2550    7.2205 C   0  0  0  0  0  0  0  0  0  0  0  0
   14.1588   10.2616    7.4645 C   0  0  0  0  0  0  0  0  0  0  0  0
   13.4729   10.2567    8.6763 C   0  0  0  0  0  0  0  0  0  0  0  0
   12.5730   11.2045    8.9377 N   0  0  0  0  0  0  0  0  0  0  0  0
   14.1419   11.0522    6.3972 N   0  0  0  0  0  0  0  0  0  0  0  0
   15.0177   10.5731    5.5160 C   0  0  0  0  0  0  0  0  0  0  0  0
   15.5902    9.4851    6.0100 N   0  0  0  0  0  0  0  0  0  0  0  0
   12.0885   11.2003    9.7947 H   0  0  0  0  0  0  0  0  0  0  0  0
   12.3929   11.9087    8.2737 H   0  0  0  0  0  0  0  0  0  0  0  0
   19.1531   10.3159    3.7129 C   0  0  0  0  0  0  0  0  0  0  0  0
   19.2032   10.3815    1.8827 S   0  0  0  0  0  0  0  0  0  0  0  0
   17.6800   11.6515    1.3764 S   0  0  0  0  0  0  0  0  0  0  0  0
   17.4515   11.4993   -0.4107 C   0  0  0  0  0  0  0  0  0  0  0  0
   14.7230    9.5890   -2.0860 C   0  0  0  0  0  0  0  0  0  0  0  0
   15.9029   10.2901   -1.9102 C   0  0  0  0  0  0  0  0  0  0  0  0
   13.8343    9.3235   -1.0439 C   0  0  0  0  0  0  0  0  0  0  0  0
   15.3012   10.4868    0.4325 C   0  0  0  0  0  0  0  0  0  0  0  0
   16.1707   10.7428   -0.6339 C   0  0  0  0  0  0  0  0  0  0  0  0
   14.1212    9.7748    0.2265 C   0  0  0  0  0  0  0  0  0  0  0  0
   12.7994   10.5854    2.0258 O   0  0  0  0  0  0  0  0  0  0  0  0
   12.7982    8.2092    1.4575 O   0  0  0  0  0  0  0  0  0  0  0  0
   13.2602    9.5234    1.2156 N   0  0  0  0  0  0  0  0  0  0  0  0
 10 11  2  0  0  0
 10 15  1  0  0  0
 11 12  1  0  0  0
 12 13  2  0  0  0
 13 14  1  0  0  0
 13 19  1  0  0  0
 14 15  2  0  0  0
 14 17  1  0  0  0
 15 16  1  0  0  0
 17 18  2  0  0  0
 18 19  1  0  0  0
 19  7  1  0  0  0
 32 34  2  0  0  0
  1  4  1  0  0  0
  2  5  1  0  0  0
 33 34  1  0  0  0
 26 27  2  0  0  0
 26 28  1  0  0  0
 27 30  1  0  0  0
 28 31  2  0  0  0
 29 30  2  0  0  0
 29 31  1  0  0  0
 25 24  1  0  0  0
 25 30  1  0  0  0
 22 23  1  0  0  0
 22  6  1  0  0  0
  3  6  1  0  0  0
  3  7  1  0  0  0
 24 23  1  0  0  0
 31 34  1  0  0  0
  4  5  1  0  0  0
  4  6  1  0  0  0
  5  7  1  0  0  0
 16 20  1  0  0  0
 16 21  1  0  0  0
  1  8  1  0  0  0
  2  9  1  0  0  0
M  CHG 1  33  -1
M  CHG 1  34   1
M  END
> <minimizedAffinity>
-8.39013

$$$$
