5IGM_BMF_A_301


 30 32  0  0  0  0  0  0  0  0999 V2000
   59.4897   -3.3283   25.2408 N   0  0  0  0  0  0  0  0  0  0  0  0
   58.5463   -5.9388   25.3503 C   0  0  0  0  0  0  0  0  0  0  0  0
   59.9072   -5.6664   25.5446 C   0  0  0  0  0  0  0  0  0  0  0  0
   57.3016   -1.3138   24.6933 C   0  0  0  0  0  0  0  0  0  0  0  0
   60.3546   -4.3501   25.4973 C   0  0  0  0  0  0  0  0  0  0  0  0
   58.2016   -3.6628   25.0913 N   0  0  0  0  0  0  0  0  0  0  0  0
   57.7177   -4.9026   25.1336 C   0  0  0  0  0  0  0  0  0  0  0  0
   56.4013   -4.8318   24.8854 N   0  0  0  0  0  0  0  0  0  0  0  0
   56.0833   -3.5513   24.7022 N   0  0  0  0  0  0  0  0  0  0  0  0
   57.1953   -2.8331   24.8260 C   0  0  0  0  0  0  0  0  0  0  0  0
   61.7199   -4.0545   25.6133 C   0  0  0  0  0  0  0  0  0  0  0  0
   64.0267   -4.4975   26.2051 C   0  0  0  0  0  0  0  0  0  0  0  0
   65.7925   -2.9664   25.6145 C   0  0  0  0  0  0  0  0  0  0  0  0
   64.4328   -3.3112   25.5837 C   0  0  0  0  0  0  0  0  0  0  0  0
   63.4709   -2.5094   24.9678 C   0  0  0  0  0  0  0  0  0  0  0  0
   62.1376   -2.8933   24.9587 C   0  0  0  0  0  0  0  0  0  0  0  0
   62.6791   -4.8849   26.2085 C   0  0  0  0  0  0  0  0  0  0  0  0
   63.8379   -1.3626   24.3796 N   0  0  0  0  0  0  0  0  0  0  0  0
   64.0821   -0.5755   24.9181 H   0  0  0  0  0  0  0  0  0  0  0  0
   63.8707   -1.3012   22.7230 S   0  0  0  0  0  0  0  0  0  0  0  0
   62.5031   -2.1295   21.9303 C   0  0  0  0  0  0  0  0  0  0  0  0
   63.8599    0.1644   22.2575 O   0  0  0  0  0  0  0  0  0  0  0  0
   65.1305   -2.0595   22.3102 O   0  0  0  0  0  0  0  0  0  0  0  0
   58.5797   -8.3076   25.7791 C   0  0  0  0  0  0  0  0  0  0  0  0
   57.9591   -7.1521   25.4087 N   0  0  0  0  0  0  0  0  0  0  0  0
   59.7823   -8.3792   26.0632 O   0  0  0  0  0  0  0  0  0  0  0  0
   57.0070   -7.2071   25.1645 H   0  0  0  0  0  0  0  0  0  0  0  0
   57.8170   -9.4177   25.8892 O   0  0  0  0  0  0  0  0  0  0  0  0
   57.2987   -9.9291   28.1755 C   0  0  0  0  0  0  0  0  0  0  0  0
   58.1298  -10.3213   26.9542 C   0  0  0  0  0  0  0  0  0  0  0  0
 21 20  1  0  0  0
 23 20  2  0  0  0
 20 22  2  0  0  0
 20 18  1  0  0  0
 18 15  1  0  0  0
 13 14  1  0  0  0
 15 14  2  0  0  0
 15 16  1  0  0  0
 14 12  1  0  0  0
 16 11  2  0  0  0
 12 17  2  0  0  0
 11 17  1  0  0  0
 11  5  1  0  0  0
 26 24  2  0  0  0
 30 29  1  0  0  0
 30 28  1  0  0  0
  3  5  1  0  0  0
  3  2  2  0  0  0
  5  1  2  0  0  0
 24 28  1  0  0  0
 24 25  1  0  0  0
  2 25  1  0  0  0
  2  7  1  0  0  0
  1  6  1  0  0  0
  6  7  1  0  0  0
  6 10  1  0  0  0
  7  8  2  0  0  0
 10  4  1  0  0  0
 10  9  2  0  0  0
  8  9  1  0  0  0
 18 19  1  0  0  0
 25 27  1  0  0  0
M  END
> <minimizedAffinity>
-9.48620

$$$$
5IGM_BMF_A_301


 30 32  0  0  0  0  0  0  0  0999 V2000
   60.5665   -5.7366   25.5577 N   0  0  0  0  0  0  0  0  0  0  0  0
   58.5202   -3.9709   24.9162 C   0  0  0  0  0  0  0  0  0  0  0  0
   59.8423   -3.5181   25.0220 C   0  0  0  0  0  0  0  0  0  0  0  0
   59.5880   -8.5710   25.9510 C   0  0  0  0  0  0  0  0  0  0  0  0
   60.8521   -4.4230   25.3325 C   0  0  0  0  0  0  0  0  0  0  0  0
   59.2857   -6.0999   25.4136 N   0  0  0  0  0  0  0  0  0  0  0  0
   58.2814   -5.2793   25.1115 C   0  0  0  0  0  0  0  0  0  0  0  0
   57.1524   -6.0038   25.1133 N   0  0  0  0  0  0  0  0  0  0  0  0
   57.4701   -7.2639   25.4061 N   0  0  0  0  0  0  0  0  0  0  0  0
   58.7851   -7.3199   25.5944 C   0  0  0  0  0  0  0  0  0  0  0  0
   62.1710   -3.9861   25.5186 C   0  0  0  0  0  0  0  0  0  0  0  0
   64.4719   -4.1778   26.2514 C   0  0  0  0  0  0  0  0  0  0  0  0
   66.1045   -2.4842   25.7247 C   0  0  0  0  0  0  0  0  0  0  0  0
   64.7911   -2.9678   25.6250 C   0  0  0  0  0  0  0  0  0  0  0  0
   63.7907   -2.2810   24.9359 C   0  0  0  0  0  0  0  0  0  0  0  0
   62.5063   -2.8004   24.8604 C   0  0  0  0  0  0  0  0  0  0  0  0
   63.1729   -4.7020   26.1877 C   0  0  0  0  0  0  0  0  0  0  0  0
   64.0731   -1.1137   24.3415 N   0  0  0  0  0  0  0  0  0  0  0  0
   64.2340   -0.3022   24.8752 H   0  0  0  0  0  0  0  0  0  0  0  0
   64.1451   -1.0689   22.6857 S   0  0  0  0  0  0  0  0  0  0  0  0
   65.6285   -1.7819   21.9956 C   0  0  0  0  0  0  0  0  0  0  0  0
   62.9454   -1.8271   22.0932 O   0  0  0  0  0  0  0  0  0  0  0  0
   64.1683    0.4130   22.3169 O   0  0  0  0  0  0  0  0  0  0  0  0
   56.9436   -2.1971   25.3219 C   0  0  0  0  0  0  0  0  0  0  0  0
   57.4460   -3.2260   24.5825 N   0  0  0  0  0  0  0  0  0  0  0  0
   57.3984   -1.8576   26.4219 O   0  0  0  0  0  0  0  0  0  0  0  0
   56.9888   -3.4427   23.7380 H   0  0  0  0  0  0  0  0  0  0  0  0
   55.9272   -1.4838   24.7887 O   0  0  0  0  0  0  0  0  0  0  0  0
   55.4961   -0.4926   22.6466 C   0  0  0  0  0  0  0  0  0  0  0  0
   55.5464   -1.7951   23.4447 C   0  0  0  0  0  0  0  0  0  0  0  0
 21 20  1  0  0  0
 23 20  2  0  0  0
 20 22  2  0  0  0
 20 18  1  0  0  0
 18 15  1  0  0  0
 13 14  1  0  0  0
 15 14  2  0  0  0
 15 16  1  0  0  0
 14 12  1  0  0  0
 16 11  2  0  0  0
 12 17  2  0  0  0
 11 17  1  0  0  0
 11  5  1  0  0  0
 26 24  2  0  0  0
 30 29  1  0  0  0
 30 28  1  0  0  0
  3  5  1  0  0  0
  3  2  2  0  0  0
  5  1  2  0  0  0
 24 28  1  0  0  0
 24 25  1  0  0  0
  2 25  1  0  0  0
  2  7  1  0  0  0
  1  6  1  0  0  0
  6  7  1  0  0  0
  6 10  1  0  0  0
  7  8  2  0  0  0
 10  4  1  0  0  0
 10  9  2  0  0  0
  8  9  1  0  0  0
 18 19  1  0  0  0
 25 27  1  0  0  0
M  END
> <minimizedAffinity>
-9.21661

$$$$
5IGM_BMF_A_301


 30 32  0  0  0  0  0  0  0  0999 V2000
   60.4298   -6.4645   25.8612 N   0  0  0  0  0  0  0  0  0  0  0  0
   58.2857   -5.1890   24.6394 C   0  0  0  0  0  0  0  0  0  0  0  0
   58.1855   -6.5314   25.0296 C   0  0  0  0  0  0  0  0  0  0  0  0
   62.8272   -4.6539   26.2080 C   0  0  0  0  0  0  0  0  0  0  0  0
   59.2680   -7.1455   25.6507 C   0  0  0  0  0  0  0  0  0  0  0  0
   60.4423   -5.1793   25.4851 N   0  0  0  0  0  0  0  0  0  0  0  0
   59.4350   -4.5397   24.8940 C   0  0  0  0  0  0  0  0  0  0  0  0
   59.8499   -3.2928   24.6247 N   0  0  0  0  0  0  0  0  0  0  0  0
   61.1031   -3.1709   25.0596 N   0  0  0  0  0  0  0  0  0  0  0  0
   61.4672   -4.3362   25.5862 C   0  0  0  0  0  0  0  0  0  0  0  0
   59.2234   -8.5064   25.9839 C   0  0  0  0  0  0  0  0  0  0  0  0
   60.0948  -10.5881   26.8640 C   0  0  0  0  0  0  0  0  0  0  0  0
   58.7018  -12.5438   27.0782 C   0  0  0  0  0  0  0  0  0  0  0  0
   58.8414  -11.1940   26.7215 C   0  0  0  0  0  0  0  0  0  0  0  0
   57.7809  -10.4389   26.2191 C   0  0  0  0  0  0  0  0  0  0  0  0
   57.9652   -9.1052   25.8836 C   0  0  0  0  0  0  0  0  0  0  0  0
   60.2895   -9.2438   26.5162 C   0  0  0  0  0  0  0  0  0  0  0  0
   56.5765  -11.0049   26.0620 N   0  0  0  0  0  0  0  0  0  0  0  0
   56.3238  -11.4233   25.2074 H   0  0  0  0  0  0  0  0  0  0  0  0
   55.5221  -10.9837   27.3413 S   0  0  0  0  0  0  0  0  0  0  0  0
   55.1334  -12.5965   27.9992 C   0  0  0  0  0  0  0  0  0  0  0  0
   56.1122  -10.1440   28.4866 O   0  0  0  0  0  0  0  0  0  0  0  0
   54.2160  -10.4195   26.7861 O   0  0  0  0  0  0  0  0  0  0  0  0
   56.4555   -3.6280   24.7380 C   0  0  0  0  0  0  0  0  0  0  0  0
   57.3126   -4.4493   24.0684 N   0  0  0  0  0  0  0  0  0  0  0  0
   56.4465   -3.5041   25.9695 O   0  0  0  0  0  0  0  0  0  0  0  0
   57.2139   -4.5073   23.0906 H   0  0  0  0  0  0  0  0  0  0  0  0
   55.6103   -2.8739   24.0010 O   0  0  0  0  0  0  0  0  0  0  0  0
   54.9710   -0.8725   22.8423 C   0  0  0  0  0  0  0  0  0  0  0  0
   55.9194   -1.4822   23.8741 C   0  0  0  0  0  0  0  0  0  0  0  0
 21 20  1  0  0  0
 23 20  2  0  0  0
 20 22  2  0  0  0
 20 18  1  0  0  0
 18 15  1  0  0  0
 13 14  1  0  0  0
 15 14  2  0  0  0
 15 16  1  0  0  0
 14 12  1  0  0  0
 16 11  2  0  0  0
 12 17  2  0  0  0
 11 17  1  0  0  0
 11  5  1  0  0  0
 26 24  2  0  0  0
 30 29  1  0  0  0
 30 28  1  0  0  0
  3  5  1  0  0  0
  3  2  2  0  0  0
  5  1  2  0  0  0
 24 28  1  0  0  0
 24 25  1  0  0  0
  2 25  1  0  0  0
  2  7  1  0  0  0
  1  6  1  0  0  0
  6  7  1  0  0  0
  6 10  1  0  0  0
  7  8  2  0  0  0
 10  4  1  0  0  0
 10  9  2  0  0  0
  8  9  1  0  0  0
 18 19  1  0  0  0
 25 27  1  0  0  0
M  END
> <minimizedAffinity>
-8.63484

$$$$
5IGM_BMF_A_301


 30 32  0  0  0  0  0  0  0  0999 V2000
   60.2279   -6.2946   25.7710 N   0  0  0  0  0  0  0  0  0  0  0  0
   58.1034   -4.9820   24.5543 C   0  0  0  0  0  0  0  0  0  0  0  0
   57.9718   -6.3141   24.9693 C   0  0  0  0  0  0  0  0  0  0  0  0
   62.6780   -4.5447   26.0555 C   0  0  0  0  0  0  0  0  0  0  0  0
   59.0453   -6.9470   25.5873 C   0  0  0  0  0  0  0  0  0  0  0  0
   60.2703   -5.0169   25.3723 N   0  0  0  0  0  0  0  0  0  0  0  0
   59.2731   -4.3602   24.7829 C   0  0  0  0  0  0  0  0  0  0  0  0
   59.7182   -3.1299   24.4864 N   0  0  0  0  0  0  0  0  0  0  0  0
   60.9799   -3.0350   24.9032 N   0  0  0  0  0  0  0  0  0  0  0  0
   61.3191   -4.2006   25.4456 C   0  0  0  0  0  0  0  0  0  0  0  0
   58.9680   -8.3002   25.9448 C   0  0  0  0  0  0  0  0  0  0  0  0
   57.9057  -10.4679   26.1456 C   0  0  0  0  0  0  0  0  0  0  0  0
   59.1241  -12.3982   26.9207 C   0  0  0  0  0  0  0  0  0  0  0  0
   59.1063  -11.0354   26.5871 C   0  0  0  0  0  0  0  0  0  0  0  0
   60.2371  -10.2244   26.6913 C   0  0  0  0  0  0  0  0  0  0  0  0
   60.1731   -8.8821   26.3458 C   0  0  0  0  0  0  0  0  0  0  0  0
   57.8325   -9.1095   25.8056 C   0  0  0  0  0  0  0  0  0  0  0  0
   61.3926  -10.7460   27.1255 N   0  0  0  0  0  0  0  0  0  0  0  0
   61.8487  -11.4545   26.6164 H   0  0  0  0  0  0  0  0  0  0  0  0
   62.0357  -10.1694   28.5407 S   0  0  0  0  0  0  0  0  0  0  0  0
   62.9295  -11.3873   29.4909 C   0  0  0  0  0  0  0  0  0  0  0  0
   63.0037   -9.0134   28.2381 O   0  0  0  0  0  0  0  0  0  0  0  0
   60.8396   -9.7516   29.3936 O   0  0  0  0  0  0  0  0  0  0  0  0
   56.2913   -3.3999   24.6534 C   0  0  0  0  0  0  0  0  0  0  0  0
   57.1434   -4.2257   23.9828 N   0  0  0  0  0  0  0  0  0  0  0  0
   56.2748   -3.2864   25.8858 O   0  0  0  0  0  0  0  0  0  0  0  0
   57.0509   -4.2742   23.0038 H   0  0  0  0  0  0  0  0  0  0  0  0
   55.4605   -2.6295   23.9169 O   0  0  0  0  0  0  0  0  0  0  0  0
   54.8541   -0.6456   22.7114 C   0  0  0  0  0  0  0  0  0  0  0  0
   55.9036   -1.3046   23.6058 C   0  0  0  0  0  0  0  0  0  0  0  0
 21 20  1  0  0  0
 23 20  2  0  0  0
 20 22  2  0  0  0
 20 18  1  0  0  0
 18 15  1  0  0  0
 13 14  1  0  0  0
 15 14  2  0  0  0
 15 16  1  0  0  0
 14 12  1  0  0  0
 16 11  2  0  0  0
 12 17  2  0  0  0
 11 17  1  0  0  0
 11  5  1  0  0  0
 26 24  2  0  0  0
 30 29  1  0  0  0
 30 28  1  0  0  0
  3  5  1  0  0  0
  3  2  2  0  0  0
  5  1  2  0  0  0
 24 28  1  0  0  0
 24 25  1  0  0  0
  2 25  1  0  0  0
  2  7  1  0  0  0
  1  6  1  0  0  0
  6  7  1  0  0  0
  6 10  1  0  0  0
  7  8  2  0  0  0
 10  4  1  0  0  0
 10  9  2  0  0  0
  8  9  1  0  0  0
 18 19  1  0  0  0
 25 27  1  0  0  0
M  END
> <minimizedAffinity>
-8.41705

$$$$
5IGM_BMF_A_301


 30 32  0  0  0  0  0  0  0  0999 V2000
   58.0114   -5.2516   25.2490 N   0  0  0  0  0  0  0  0  0  0  0  0
   60.4070   -3.8453   25.2760 C   0  0  0  0  0  0  0  0  0  0  0  0
   60.3943   -5.2314   25.4828 C   0  0  0  0  0  0  0  0  0  0  0  0
   55.6173   -3.4776   24.7325 C   0  0  0  0  0  0  0  0  0  0  0  0
   59.1839   -5.9162   25.4528 C   0  0  0  0  0  0  0  0  0  0  0  0
   58.1049   -3.9331   25.0337 N   0  0  0  0  0  0  0  0  0  0  0  0
   59.2350   -3.2290   25.0441 C   0  0  0  0  0  0  0  0  0  0  0  0
   58.9118   -1.9423   24.8453 N   0  0  0  0  0  0  0  0  0  0  0  0
   57.5895   -1.8650   24.7045 N   0  0  0  0  0  0  0  0  0  0  0  0
   57.0939   -3.0929   24.8247 C   0  0  0  0  0  0  0  0  0  0  0  0
   59.1322   -7.2892   25.7304 C   0  0  0  0  0  0  0  0  0  0  0  0
   58.0637   -9.4508   25.9615 C   0  0  0  0  0  0  0  0  0  0  0  0
   59.3436  -11.4454   26.4027 C   0  0  0  0  0  0  0  0  0  0  0  0
   59.3055  -10.0631   26.1647 C   0  0  0  0  0  0  0  0  0  0  0  0
   60.4578   -9.2765   26.1356 C   0  0  0  0  0  0  0  0  0  0  0  0
   60.3716   -7.9132   25.8921 C   0  0  0  0  0  0  0  0  0  0  0  0
   57.9697   -8.0717   25.7259 C   0  0  0  0  0  0  0  0  0  0  0  0
   61.6550   -9.8419   26.3419 N   0  0  0  0  0  0  0  0  0  0  0  0
   62.0857  -10.3808   25.6395 H   0  0  0  0  0  0  0  0  0  0  0  0
   62.3937   -9.6121   27.8083 S   0  0  0  0  0  0  0  0  0  0  0  0
   63.4343  -10.9662   28.3266 C   0  0  0  0  0  0  0  0  0  0  0  0
   63.2671   -8.3473   27.7572 O   0  0  0  0  0  0  0  0  0  0  0  0
   61.2603   -9.5257   28.8285 O   0  0  0  0  0  0  0  0  0  0  0  0
   62.3086   -2.8905   24.1497 C   0  0  0  0  0  0  0  0  0  0  0  0
   61.4994   -3.0548   25.2341 N   0  0  0  0  0  0  0  0  0  0  0  0
   62.1531   -3.4945   23.0807 O   0  0  0  0  0  0  0  0  0  0  0  0
   61.7304   -2.5572   26.0516 H   0  0  0  0  0  0  0  0  0  0  0  0
   63.2991   -1.9760   24.2434 O   0  0  0  0  0  0  0  0  0  0  0  0
   63.8623   -0.4760   22.4573 C   0  0  0  0  0  0  0  0  0  0  0  0
   64.1586   -1.8266   23.1087 C   0  0  0  0  0  0  0  0  0  0  0  0
 21 20  1  0  0  0
 23 20  2  0  0  0
 20 22  2  0  0  0
 20 18  1  0  0  0
 18 15  1  0  0  0
 13 14  1  0  0  0
 15 14  2  0  0  0
 15 16  1  0  0  0
 14 12  1  0  0  0
 16 11  2  0  0  0
 12 17  2  0  0  0
 11 17  1  0  0  0
 11  5  1  0  0  0
 26 24  2  0  0  0
 30 29  1  0  0  0
 30 28  1  0  0  0
  3  5  1  0  0  0
  3  2  2  0  0  0
  5  1  2  0  0  0
 24 28  1  0  0  0
 24 25  1  0  0  0
  2 25  1  0  0  0
  2  7  1  0  0  0
  1  6  1  0  0  0
  6  7  1  0  0  0
  6 10  1  0  0  0
  7  8  2  0  0  0
 10  4  1  0  0  0
 10  9  2  0  0  0
  8  9  1  0  0  0
 18 19  1  0  0  0
 25 27  1  0  0  0
M  END
> <minimizedAffinity>
-8.18688

$$$$
5IGM_BMF_A_301


 30 32  0  0  0  0  0  0  0  0999 V2000
   62.8076   -4.9012   26.5196 N   0  0  0  0  0  0  0  0  0  0  0  0
   63.7553   -2.6233   25.2430 C   0  0  0  0  0  0  0  0  0  0  0  0
   62.4662   -3.1036   24.9752 C   0  0  0  0  0  0  0  0  0  0  0  0
   64.8191   -6.0912   28.4388 C   0  0  0  0  0  0  0  0  0  0  0  0
   62.0088   -4.2392   25.6356 C   0  0  0  0  0  0  0  0  0  0  0  0
   64.0159   -4.3689   26.7433 N   0  0  0  0  0  0  0  0  0  0  0  0
   64.5017   -3.2824   26.1461 C   0  0  0  0  0  0  0  0  0  0  0  0
   65.7545   -3.1023   26.5907 N   0  0  0  0  0  0  0  0  0  0  0  0
   66.0268   -4.0710   27.4636 N   0  0  0  0  0  0  0  0  0  0  0  0
   64.9549   -4.8526   27.5532 C   0  0  0  0  0  0  0  0  0  0  0  0
   60.7538   -4.7854   25.3328 C   0  0  0  0  0  0  0  0  0  0  0  0
   59.0518   -6.5087   25.2996 C   0  0  0  0  0  0  0  0  0  0  0  0
   56.8261   -6.0623   24.4885 C   0  0  0  0  0  0  0  0  0  0  0  0
   58.1211   -5.6047   24.7753 C   0  0  0  0  0  0  0  0  0  0  0  0
   58.5173   -4.2865   24.5455 C   0  0  0  0  0  0  0  0  0  0  0  0
   59.8082   -3.8780   24.8489 C   0  0  0  0  0  0  0  0  0  0  0  0
   60.3609   -6.1042   25.5978 C   0  0  0  0  0  0  0  0  0  0  0  0
   57.6448   -3.4093   24.0308 N   0  0  0  0  0  0  0  0  0  0  0  0
   57.4649   -3.3860   23.0632 H   0  0  0  0  0  0  0  0  0  0  0  0
   56.8755   -2.3642   25.0627 S   0  0  0  0  0  0  0  0  0  0  0  0
   57.9563   -1.5582   26.2320 C   0  0  0  0  0  0  0  0  0  0  0  0
   56.1633   -1.2668   24.2545 O   0  0  0  0  0  0  0  0  0  0  0  0
   55.9211   -3.2285   25.8842 O   0  0  0  0  0  0  0  0  0  0  0  0
   64.9185   -1.4465   23.4942 C   0  0  0  0  0  0  0  0  0  0  0  0
   64.3198   -1.5168   24.7166 N   0  0  0  0  0  0  0  0  0  0  0  0
   65.0524   -2.4184   22.7397 O   0  0  0  0  0  0  0  0  0  0  0  0
   64.2976   -0.6950   25.2584 H   0  0  0  0  0  0  0  0  0  0  0  0
   65.3367   -0.2323   23.0733 O   0  0  0  0  0  0  0  0  0  0  0  0
   67.0075    1.2952   23.8686 C   0  0  0  0  0  0  0  0  0  0  0  0
   66.7471    0.0110   23.0819 C   0  0  0  0  0  0  0  0  0  0  0  0
 21 20  1  0  0  0
 23 20  2  0  0  0
 20 22  2  0  0  0
 20 18  1  0  0  0
 18 15  1  0  0  0
 13 14  1  0  0  0
 15 14  2  0  0  0
 15 16  1  0  0  0
 14 12  1  0  0  0
 16 11  2  0  0  0
 12 17  2  0  0  0
 11 17  1  0  0  0
 11  5  1  0  0  0
 26 24  2  0  0  0
 30 29  1  0  0  0
 30 28  1  0  0  0
  3  5  1  0  0  0
  3  2  2  0  0  0
  5  1  2  0  0  0
 24 28  1  0  0  0
 24 25  1  0  0  0
  2 25  1  0  0  0
  2  7  1  0  0  0
  1  6  1  0  0  0
  6  7  1  0  0  0
  6 10  1  0  0  0
  7  8  2  0  0  0
 10  4  1  0  0  0
 10  9  2  0  0  0
  8  9  1  0  0  0
 18 19  1  0  0  0
 25 27  1  0  0  0
M  END
> <minimizedAffinity>
-8.15103

$$$$
5IGM_BMF_A_301


 30 32  0  0  0  0  0  0  0  0999 V2000
   64.2746   -2.9498   24.5754 N   0  0  0  0  0  0  0  0  0  0  0  0
   61.6154   -3.7465   24.4709 C   0  0  0  0  0  0  0  0  0  0  0  0
   62.4097   -4.0654   25.5807 C   0  0  0  0  0  0  0  0  0  0  0  0
   65.1295   -1.3971   22.1250 C   0  0  0  0  0  0  0  0  0  0  0  0
   63.7353   -3.6453   25.6161 C   0  0  0  0  0  0  0  0  0  0  0  0
   63.4484   -2.6602   23.5620 N   0  0  0  0  0  0  0  0  0  0  0  0
   62.1719   -3.0300   23.4789 C   0  0  0  0  0  0  0  0  0  0  0  0
   61.7024   -2.6009   22.2978 N   0  0  0  0  0  0  0  0  0  0  0  0
   62.6879   -1.9631   21.6680 N   0  0  0  0  0  0  0  0  0  0  0  0
   63.7641   -2.0042   22.4477 C   0  0  0  0  0  0  0  0  0  0  0  0
   64.5737   -4.0134   26.6775 C   0  0  0  0  0  0  0  0  0  0  0  0
   66.4204   -3.7423   28.2215 C   0  0  0  0  0  0  0  0  0  0  0  0
   66.7703   -5.2791   30.0455 C   0  0  0  0  0  0  0  0  0  0  0  0
   66.0100   -4.8717   28.9388 C   0  0  0  0  0  0  0  0  0  0  0  0
   64.8689   -5.5576   28.5211 C   0  0  0  0  0  0  0  0  0  0  0  0
   64.1458   -5.1148   27.4227 C   0  0  0  0  0  0  0  0  0  0  0  0
   65.6998   -3.2967   27.1042 C   0  0  0  0  0  0  0  0  0  0  0  0
   64.4678   -6.6495   29.1863 N   0  0  0  0  0  0  0  0  0  0  0  0
   64.0979   -6.5781   30.0959 H   0  0  0  0  0  0  0  0  0  0  0  0
   64.6095   -8.1237   28.4409 S   0  0  0  0  0  0  0  0  0  0  0  0
   64.7605   -9.5028   29.5636 C   0  0  0  0  0  0  0  0  0  0  0  0
   63.3786   -8.3779   27.5548 O   0  0  0  0  0  0  0  0  0  0  0  0
   65.9188   -8.0619   27.6571 O   0  0  0  0  0  0  0  0  0  0  0  0
   59.2789   -3.4305   24.9578 C   0  0  0  0  0  0  0  0  0  0  0  0
   60.3095   -4.0456   24.3120 N   0  0  0  0  0  0  0  0  0  0  0  0
   59.4341   -2.5459   25.8095 O   0  0  0  0  0  0  0  0  0  0  0  0
   60.0830   -4.7652   23.6794 H   0  0  0  0  0  0  0  0  0  0  0  0
   58.0227   -3.7778   24.6005 O   0  0  0  0  0  0  0  0  0  0  0  0
   57.0175   -5.9207   24.2073 C   0  0  0  0  0  0  0  0  0  0  0  0
   57.4430   -4.9043   25.2664 C   0  0  0  0  0  0  0  0  0  0  0  0
 21 20  1  0  0  0
 23 20  2  0  0  0
 20 22  2  0  0  0
 20 18  1  0  0  0
 18 15  1  0  0  0
 13 14  1  0  0  0
 15 14  2  0  0  0
 15 16  1  0  0  0
 14 12  1  0  0  0
 16 11  2  0  0  0
 12 17  2  0  0  0
 11 17  1  0  0  0
 11  5  1  0  0  0
 26 24  2  0  0  0
 30 29  1  0  0  0
 30 28  1  0  0  0
  3  5  1  0  0  0
  3  2  2  0  0  0
  5  1  2  0  0  0
 24 28  1  0  0  0
 24 25  1  0  0  0
  2 25  1  0  0  0
  2  7  1  0  0  0
  1  6  1  0  0  0
  6  7  1  0  0  0
  6 10  1  0  0  0
  7  8  2  0  0  0
 10  4  1  0  0  0
 10  9  2  0  0  0
  8  9  1  0  0  0
 18 19  1  0  0  0
 25 27  1  0  0  0
M  END
> <minimizedAffinity>
-7.34989

$$$$
5IGM_BMF_A_301


 30 32  0  0  0  0  0  0  0  0999 V2000
   62.6870   -2.8677   23.7953 N   0  0  0  0  0  0  0  0  0  0  0  0
   64.4533   -2.7663   25.9371 C   0  0  0  0  0  0  0  0  0  0  0  0
   63.3008   -3.5610   26.0034 C   0  0  0  0  0  0  0  0  0  0  0  0
   63.5654   -1.1453   21.4698 C   0  0  0  0  0  0  0  0  0  0  0  0
   62.4372   -3.6054   24.9139 C   0  0  0  0  0  0  0  0  0  0  0  0
   63.8196   -2.1530   23.7950 N   0  0  0  0  0  0  0  0  0  0  0  0
   64.6843   -2.0792   24.8049 C   0  0  0  0  0  0  0  0  0  0  0  0
   65.6544   -1.2253   24.4454 N   0  0  0  0  0  0  0  0  0  0  0  0
   65.3859   -0.7881   23.2160 N   0  0  0  0  0  0  0  0  0  0  0  0
   64.2524   -1.3585   22.8188 C   0  0  0  0  0  0  0  0  0  0  0  0
   61.2400   -4.3316   24.9798 C   0  0  0  0  0  0  0  0  0  0  0  0
   59.8224   -6.1875   25.6230 C   0  0  0  0  0  0  0  0  0  0  0  0
   57.4492   -6.1622   25.2007 C   0  0  0  0  0  0  0  0  0  0  0  0
   58.6953   -5.5212   25.1288 C   0  0  0  0  0  0  0  0  0  0  0  0
   58.8530   -4.2513   24.5723 C   0  0  0  0  0  0  0  0  0  0  0  0
   60.1049   -3.6549   24.5267 C   0  0  0  0  0  0  0  0  0  0  0  0
   61.0917   -5.5941   25.5695 C   0  0  0  0  0  0  0  0  0  0  0  0
   57.7881   -3.6030   24.0810 N   0  0  0  0  0  0  0  0  0  0  0  0
   57.4567   -3.7930   23.1737 H   0  0  0  0  0  0  0  0  0  0  0  0
   57.0419   -2.4732   25.0380 S   0  0  0  0  0  0  0  0  0  0  0  0
   58.1082   -1.7246   26.2578 C   0  0  0  0  0  0  0  0  0  0  0  0
   56.4735   -1.3445   24.1617 O   0  0  0  0  0  0  0  0  0  0  0  0
   55.9707   -3.2369   25.8137 O   0  0  0  0  0  0  0  0  0  0  0  0
   66.3970   -3.5574   27.1170 C   0  0  0  0  0  0  0  0  0  0  0  0
   65.4015   -2.6546   26.8903 N   0  0  0  0  0  0  0  0  0  0  0  0
   66.5147   -4.6193   26.4921 O   0  0  0  0  0  0  0  0  0  0  0  0
   65.3719   -1.8578   27.4678 H   0  0  0  0  0  0  0  0  0  0  0  0
   67.3300   -3.2383   28.0410 O   0  0  0  0  0  0  0  0  0  0  0  0
   67.0213   -2.1235   30.1432 C   0  0  0  0  0  0  0  0  0  0  0  0
   66.9938   -3.4662   29.4135 C   0  0  0  0  0  0  0  0  0  0  0  0
 21 20  1  0  0  0
 23 20  2  0  0  0
 20 22  2  0  0  0
 20 18  1  0  0  0
 18 15  1  0  0  0
 13 14  1  0  0  0
 15 14  2  0  0  0
 15 16  1  0  0  0
 14 12  1  0  0  0
 16 11  2  0  0  0
 12 17  2  0  0  0
 11 17  1  0  0  0
 11  5  1  0  0  0
 26 24  2  0  0  0
 30 29  1  0  0  0
 30 28  1  0  0  0
  3  5  1  0  0  0
  3  2  2  0  0  0
  5  1  2  0  0  0
 24 28  1  0  0  0
 24 25  1  0  0  0
  2 25  1  0  0  0
  2  7  1  0  0  0
  1  6  1  0  0  0
  6  7  1  0  0  0
  6 10  1  0  0  0
  7  8  2  0  0  0
 10  4  1  0  0  0
 10  9  2  0  0  0
  8  9  1  0  0  0
 18 19  1  0  0  0
 25 27  1  0  0  0
M  END
> <minimizedAffinity>
-7.32388

$$$$
5IGM_BMF_A_301


 30 32  0  0  0  0  0  0  0  0999 V2000
   64.2730   -3.2299   24.4544 N   0  0  0  0  0  0  0  0  0  0  0  0
   61.5019   -3.2482   24.6482 C   0  0  0  0  0  0  0  0  0  0  0  0
   62.2910   -3.7347   25.6993 C   0  0  0  0  0  0  0  0  0  0  0  0
   65.2568   -2.0775   21.8372 C   0  0  0  0  0  0  0  0  0  0  0  0
   63.6769   -3.7043   25.5847 C   0  0  0  0  0  0  0  0  0  0  0  0
   63.4557   -2.7587   23.5040 N   0  0  0  0  0  0  0  0  0  0  0  0
   62.1255   -2.7567   23.5634 C   0  0  0  0  0  0  0  0  0  0  0  0
   61.6694   -2.2588   22.4042 N   0  0  0  0  0  0  0  0  0  0  0  0
   62.7196   -1.9495   21.6453 N   0  0  0  0  0  0  0  0  0  0  0  0
   63.8195   -2.2621   22.3239 C   0  0  0  0  0  0  0  0  0  0  0  0
   64.4894   -4.2523   26.5870 C   0  0  0  0  0  0  0  0  0  0  0  0
   65.0494   -5.7913   28.3718 C   0  0  0  0  0  0  0  0  0  0  0  0
   67.2465   -5.8214   29.3630 C   0  0  0  0  0  0  0  0  0  0  0  0
   66.3557   -5.2914   28.4174 C   0  0  0  0  0  0  0  0  0  0  0  0
   66.7207   -4.2774   27.5309 C   0  0  0  0  0  0  0  0  0  0  0  0
   65.8065   -3.7872   26.6095 C   0  0  0  0  0  0  0  0  0  0  0  0
   64.1180   -5.2920   27.4501 C   0  0  0  0  0  0  0  0  0  0  0  0
   67.9627   -3.7758   27.5684 N   0  0  0  0  0  0  0  0  0  0  0  0
   68.7261   -4.2935   27.2242 H   0  0  0  0  0  0  0  0  0  0  0  0
   68.1831   -2.2623   28.2085 S   0  0  0  0  0  0  0  0  0  0  0  0
   69.7464   -2.0368   29.0392 C   0  0  0  0  0  0  0  0  0  0  0  0
   68.0932   -1.2084   27.0922 O   0  0  0  0  0  0  0  0  0  0  0  0
   67.1023   -2.1082   29.2766 O   0  0  0  0  0  0  0  0  0  0  0  0
   59.3106   -4.2374   24.5222 C   0  0  0  0  0  0  0  0  0  0  0  0
   60.1550   -3.1730   24.6303 N   0  0  0  0  0  0  0  0  0  0  0  0
   59.6947   -5.4053   24.3802 O   0  0  0  0  0  0  0  0  0  0  0  0
   59.7500   -2.2784   24.7008 H   0  0  0  0  0  0  0  0  0  0  0  0
   57.9854   -3.9958   24.6308 O   0  0  0  0  0  0  0  0  0  0  0  0
   56.7372   -1.9552   24.8171 C   0  0  0  0  0  0  0  0  0  0  0  0
   57.5800   -2.9888   25.5636 C   0  0  0  0  0  0  0  0  0  0  0  0
 21 20  1  0  0  0
 23 20  2  0  0  0
 20 22  2  0  0  0
 20 18  1  0  0  0
 18 15  1  0  0  0
 13 14  1  0  0  0
 15 14  2  0  0  0
 15 16  1  0  0  0
 14 12  1  0  0  0
 16 11  2  0  0  0
 12 17  2  0  0  0
 11 17  1  0  0  0
 11  5  1  0  0  0
 26 24  2  0  0  0
 30 29  1  0  0  0
 30 28  1  0  0  0
  3  5  1  0  0  0
  3  2  2  0  0  0
  5  1  2  0  0  0
 24 28  1  0  0  0
 24 25  1  0  0  0
  2 25  1  0  0  0
  2  7  1  0  0  0
  1  6  1  0  0  0
  6  7  1  0  0  0
  6 10  1  0  0  0
  7  8  2  0  0  0
 10  4  1  0  0  0
 10  9  2  0  0  0
  8  9  1  0  0  0
 18 19  1  0  0  0
 25 27  1  0  0  0
M  END
> <minimizedAffinity>
-6.86678

$$$$
5IGM_BMF_A_301


 30 32  0  0  0  0  0  0  0  0999 V2000
   65.1147   -3.9881   24.5753 N   0  0  0  0  0  0  0  0  0  0  0  0
   62.4674   -3.3151   25.0809 C   0  0  0  0  0  0  0  0  0  0  0  0
   63.1919   -2.6489   24.0831 C   0  0  0  0  0  0  0  0  0  0  0  0
   66.1185   -6.2150   26.3583 C   0  0  0  0  0  0  0  0  0  0  0  0
   64.5126   -3.0114   23.8396 C   0  0  0  0  0  0  0  0  0  0  0  0
   64.3525   -4.5968   25.4928 N   0  0  0  0  0  0  0  0  0  0  0  0
   63.0837   -4.2961   25.7628 C   0  0  0  0  0  0  0  0  0  0  0  0
   62.6878   -5.0832   26.7744 N   0  0  0  0  0  0  0  0  0  0  0  0
   63.7100   -5.8676   27.1126 N   0  0  0  0  0  0  0  0  0  0  0  0
   64.7361   -5.5634   26.3237 C   0  0  0  0  0  0  0  0  0  0  0  0
   65.2840   -2.3128   22.9005 C   0  0  0  0  0  0  0  0  0  0  0  0
   65.9945   -0.3680   21.6432 C   0  0  0  0  0  0  0  0  0  0  0  0
   67.9129   -0.4451   20.1856 C   0  0  0  0  0  0  0  0  0  0  0  0
   67.0642   -1.0880   21.0994 C   0  0  0  0  0  0  0  0  0  0  0  0
   67.2405   -2.4203   21.4754 C   0  0  0  0  0  0  0  0  0  0  0  0
   66.3781   -3.0131   22.3864 C   0  0  0  0  0  0  0  0  0  0  0  0
   65.1133   -0.9653   22.5559 C   0  0  0  0  0  0  0  0  0  0  0  0
   68.2506   -3.1306   20.9550 N   0  0  0  0  0  0  0  0  0  0  0  0
   69.1543   -3.0803   21.3423 H   0  0  0  0  0  0  0  0  0  0  0  0
   67.9418   -4.0964   19.6431 S   0  0  0  0  0  0  0  0  0  0  0  0
   66.4605   -3.6649   18.7461 C   0  0  0  0  0  0  0  0  0  0  0  0
   69.1200   -4.0254   18.6574 O   0  0  0  0  0  0  0  0  0  0  0  0
   67.7090   -5.4952   20.2104 O   0  0  0  0  0  0  0  0  0  0  0  0
   60.1123   -3.7584   24.8501 C   0  0  0  0  0  0  0  0  0  0  0  0
   61.1739   -3.1059   25.4022 N   0  0  0  0  0  0  0  0  0  0  0  0
   60.2179   -4.5963   23.9453 O   0  0  0  0  0  0  0  0  0  0  0  0
   60.9816   -2.4281   26.0899 H   0  0  0  0  0  0  0  0  0  0  0  0
   58.8886   -3.5059   25.3648 O   0  0  0  0  0  0  0  0  0  0  0  0
   57.0196   -2.0861   25.8629 C   0  0  0  0  0  0  0  0  0  0  0  0
   58.4964   -2.1336   25.4721 C   0  0  0  0  0  0  0  0  0  0  0  0
 21 20  1  0  0  0
 23 20  2  0  0  0
 20 22  2  0  0  0
 20 18  1  0  0  0
 18 15  1  0  0  0
 13 14  1  0  0  0
 15 14  2  0  0  0
 15 16  1  0  0  0
 14 12  1  0  0  0
 16 11  2  0  0  0
 12 17  2  0  0  0
 11 17  1  0  0  0
 11  5  1  0  0  0
 26 24  2  0  0  0
 30 29  1  0  0  0
 30 28  1  0  0  0
  3  5  1  0  0  0
  3  2  2  0  0  0
  5  1  2  0  0  0
 24 28  1  0  0  0
 24 25  1  0  0  0
  2 25  1  0  0  0
  2  7  1  0  0  0
  1  6  1  0  0  0
  6  7  1  0  0  0
  6 10  1  0  0  0
  7  8  2  0  0  0
 10  4  1  0  0  0
 10  9  2  0  0  0
  8  9  1  0  0  0
 18 19  1  0  0  0
 25 27  1  0  0  0
M  END
> <minimizedAffinity>
-6.86060

$$$$
