5UFS_1TA_A_301


 33 37  0  0  0  0  0  0  0  0999 V2000
   21.4676   36.6263   19.9414 C   0  0  0  0  0  0  0  0  0  0  0  0
   21.4309   37.8036   20.8558 C   0  0  0  0  0  0  0  0  0  0  0  0
   22.0036   38.9405   20.5111 C   0  0  0  0  0  0  0  0  0  0  0  0
   22.6853   39.2643   19.1625 C   0  0  0  0  0  0  0  0  0  0  0  0
   24.1235   39.7162   19.5045 C   0  0  0  0  0  0  0  0  0  0  0  0
   22.8753   37.9980   18.3143 C   0  0  0  0  0  0  0  0  0  0  0  0
   23.4252   38.4150   16.9115 C   0  0  0  0  0  0  0  0  0  0  0  0
   22.8643   39.6727   16.1233 C   0  0  0  0  0  0  0  0  0  0  0  0
   22.6837   40.9529   16.9638 C   0  0  0  0  0  0  0  0  0  0  0  0
   21.9622   40.5010   18.3138 C   0  0  0  0  0  0  0  0  0  0  0  0
   21.7044   41.8225   19.1962 C   0  0  0  0  0  0  0  0  0  0  0  0
   21.0103   43.0087   18.3934 C   0  0  0  0  0  0  0  0  0  0  0  0
   21.6557   43.4014   17.0444 C   0  0  0  0  0  0  0  0  0  0  0  0
   23.0143   44.0550   17.3646 C   0  0  0  0  0  0  0  0  0  0  0  0
   21.8820   42.1212   16.1921 C   0  0  0  0  0  0  0  0  0  0  0  0
   22.3406   42.7917   14.8615 C   0  0  0  0  0  0  0  0  0  0  0  0
   21.3741   43.9949   14.6082 C   0  0  0  0  0  0  0  0  0  0  0  0
   20.8697   44.4333   16.0356 C   0  0  0  0  0  0  0  0  0  0  0  0
   19.0329   43.9989   14.5562 C   0  0  0  0  0  0  0  0  0  0  0  0
   18.2828   45.2099   13.9407 C   0  0  0  0  0  0  0  0  0  0  0  0
   18.0959   42.7646   14.4602 C   0  0  0  0  0  0  0  0  0  0  0  0
   22.2930   36.8255   18.6930 C   0  0  0  0  0  0  0  0  0  0  0  0
   20.7390   40.0311   18.0212 F   0  0  0  0  0  0  0  0  0  0  0  0
   20.8709   35.5874   20.1939 O   0  0  0  0  0  0  0  0  0  0  0  0
   22.9247   42.2665   19.6981 O   0  0  0  0  0  0  0  0  0  0  0  0
   19.4722   44.2776   15.8958 O   0  0  0  0  0  0  0  0  0  0  0  0
   20.2132   43.6815   13.8585 O   0  0  0  0  0  0  0  0  0  0  0  0
   23.5096   42.5051   18.9620 H   0  0  0  0  0  0  0  0  0  0  0  0
   21.1757   45.9424   16.3532 C   0  0  0  0  0  0  0  0  0  0  0  0
   21.9261   46.5611   15.6181 O   0  0  0  0  0  0  0  0  0  0  0  0
   20.5708   46.6670   17.5666 C   0  0  0  0  0  0  0  0  0  0  0  0
   21.5012   47.5547   18.1183 O   0  0  0  0  0  0  0  0  0  0  0  0
   22.2844   47.0624   18.4098 H   0  0  0  0  0  0  0  0  0  0  0  0
 27 17  1  0  0  0
 27 19  1  0  0  0
 20 19  1  0  0  0
 21 19  1  0  0  0
 17 16  1  0  0  0
 17 18  1  0  0  0
 19 26  1  0  0  0
 16 15  1  0  0  0
 30 29  2  0  0  0
 26 18  1  0  0  0
  8  7  1  0  0  0
  8  9  1  0  0  0
 18 29  1  0  0  0
 18 13  1  0  0  0
 15  9  1  0  0  0
 15 13  1  0  0  0
 29 31  1  0  0  0
  7  6  1  0  0  0
  9 10  1  0  0  0
 13 14  1  0  0  0
 13 12  1  0  0  0
 31 32  1  0  0  0
 23 10  1  0  0  0
  6 22  2  0  0  0
  6  4  1  0  0  0
 10  4  1  0  0  0
 10 11  1  0  0  0
 12 11  1  0  0  0
 22  1  1  0  0  0
  4  5  1  0  0  0
  4  3  1  0  0  0
 11 25  1  0  0  0
  1 24  2  0  0  0
  1  2  1  0  0  0
  3  2  2  0  0  0
 25 28  1  0  0  0
 32 33  1  0  0  0
M  END
> <minimizedAffinity>
-13.73832

$$$$
