2QHZ_MZ2_A_200


 42 44  0  0  0  0  0  0  0  0999 V2000
   20.0506   29.7487   15.6206 C   0  0  0  0  0  0  0  0  0  0  0  0
   20.1272   28.5911   16.4761 O   0  0  0  0  0  0  0  0  0  0  0  0
   19.2867   28.1080   16.4425 H   0  0  0  0  0  0  0  0  0  0  0  0
   19.8351   29.3209   14.1635 C   0  0  0  0  0  0  0  0  0  0  0  0
   21.9088   29.2699   12.7764 C   0  0  0  0  0  0  0  0  0  0  0  0
   21.6450   30.2905   12.1668 O   0  0  0  0  0  0  0  0  0  0  0  0
   21.1084   28.7464   13.7234 N   0  0  0  0  0  0  0  0  0  0  0  0
   21.4021   27.9113   14.1544 H   0  0  0  0  0  0  0  0  0  0  0  0
   23.2027   27.3860   11.6669 C   0  0  0  0  0  0  0  0  0  0  0  0
   22.0724   26.8509   10.8226 C   0  0  0  0  0  0  0  0  0  0  0  0
   23.1350   28.4722   12.4523 C   0  0  0  0  0  0  0  0  0  0  0  0
   25.2305   26.7563   12.6806 F   0  0  0  0  0  0  0  0  0  0  0  0
   24.5434   26.6985   11.5450 C   0  0  0  0  0  0  0  0  0  0  0  0
   25.2395   27.3372   10.6225 F   0  0  0  0  0  0  0  0  0  0  0  0
   24.4174   25.4206   11.1998 F   0  0  0  0  0  0  0  0  0  0  0  0
   18.7643   28.2247   14.0230 C   0  0  0  0  0  0  0  0  0  0  0  0
   18.4920   27.8848   12.5543 C   0  0  0  0  0  0  0  0  0  0  0  0
   18.6033   26.5758   12.0990 C   0  0  0  0  0  0  0  0  0  0  0  0
   18.3554   26.2681   10.7638 C   0  0  0  0  0  0  0  0  0  0  0  0
   17.9971   27.2677    9.8693 C   0  0  0  0  0  0  0  0  0  0  0  0
   17.8893   28.5772   10.3161 C   0  0  0  0  0  0  0  0  0  0  0  0
   18.1344   28.8851   11.6570 C   0  0  0  0  0  0  0  0  0  0  0  0
   18.9466   30.7009   16.1244 C   0  0  0  0  0  0  0  0  0  0  0  0
   19.2178   32.0215   15.5051 N   0  0  0  0  0  0  0  0  0  0  0  0
   17.9893   32.6536   14.6428 S   0  0  0  0  0  0  0  0  0  0  0  0
   18.5889   33.4733   13.6402 O   0  0  0  0  0  0  0  0  0  0  0  0
   17.2837   31.5761   14.0022 O   0  0  0  0  0  0  0  0  0  0  0  0
   16.9278   33.5203   15.5332 C   0  0  0  0  0  0  0  0  0  0  0  0
   16.9071   34.9129   15.4480 C   0  0  0  0  0  0  0  0  0  0  0  0
   16.0088   35.6855   16.1946 C   0  0  0  0  0  0  0  0  0  0  0  0
   16.0063   37.0263   16.1082 F   0  0  0  0  0  0  0  0  0  0  0  0
   16.0112   32.9248   16.4150 C   0  0  0  0  0  0  0  0  0  0  0  0
   15.9746   31.5916   16.5584 F   0  0  0  0  0  0  0  0  0  0  0  0
   15.1108   33.6947   17.1708 C   0  0  0  0  0  0  0  0  0  0  0  0
   15.1086   35.0843   17.0566 C   0  0  0  0  0  0  0  0  0  0  0  0
   14.2598   35.8632   17.7668 F   0  0  0  0  0  0  0  0  0  0  0  0
   19.9772   32.9795   16.3603 C   0  0  0  0  0  0  0  0  0  0  0  0
   21.4517   32.8909   15.9445 C   0  0  0  0  0  0  0  0  0  0  0  0
   21.8385   32.8086   14.6493 C   0  0  0  0  0  0  0  0  0  0  0  0
   23.2622   32.7912   14.5958 C   0  0  0  0  0  0  0  0  0  0  0  0
   23.8239   32.8502   15.8156 C   0  0  0  0  0  0  0  0  0  0  0  0
   22.7174   32.9139   17.0602 S   0  0  0  0  0  0  0  0  0  0  0  0
 12 13  1  0  0  0
 13 14  1  0  0  0
 13 15  1  0  0  0
 13  9  1  0  0  0
  9 10  1  0  0  0
  9 11  2  0  0  0
 11  5  1  0  0  0
  5  6  2  0  0  0
  5  7  1  0  0  0
  7  4  1  0  0  0
  4 16  1  0  0  0
  4  1  1  0  0  0
 16 17  1  0  0  0
 17 18  2  0  0  0
 17 22  1  0  0  0
 18 19  1  0  0  0
 19 20  2  0  0  0
 20 21  1  0  0  0
 21 22  2  0  0  0
  1 23  1  0  0  0
  1  2  1  0  0  0
 23 24  1  0  0  0
 24 25  1  0  0  0
 24 37  1  0  0  0
 25 26  2  0  0  0
 25 27  2  0  0  0
 25 28  1  0  0  0
 28 29  2  0  0  0
 28 32  1  0  0  0
 29 30  1  0  0  0
 30 31  1  0  0  0
 30 35  2  0  0  0
 32 33  1  0  0  0
 32 34  2  0  0  0
 34 35  1  0  0  0
 35 36  1  0  0  0
 37 38  1  0  0  0
 38 42  1  0  0  0
 38 39  2  0  0  0
 39 40  1  0  0  0
 40 41  2  0  0  0
 41 42  1  0  0  0
  7  8  1  0  0  0
  2  3  1  0  0  0
M  END
> <minimizedAffinity>
-10.18806

$$$$
2QHZ_MZ2_A_200


 42 44  0  0  0  0  0  0  0  0999 V2000
   18.0749   32.8495   14.3434 C   0  0  0  0  0  0  0  0  0  0  0  0
   17.3943   31.5807   14.4133 O   0  0  0  0  0  0  0  0  0  0  0  0
   17.6054   31.1464   15.2545 H   0  0  0  0  0  0  0  0  0  0  0  0
   17.5884   33.7774   15.4637 C   0  0  0  0  0  0  0  0  0  0  0  0
   19.1805   34.7366   17.1287 C   0  0  0  0  0  0  0  0  0  0  0  0
   18.6199   34.2493   18.0936 O   0  0  0  0  0  0  0  0  0  0  0  0
   18.7552   34.5675   15.8629 N   0  0  0  0  0  0  0  0  0  0  0  0
   19.2690   35.0099   15.1491 H   0  0  0  0  0  0  0  0  0  0  0  0
   20.4172   36.7709   18.0154 C   0  0  0  0  0  0  0  0  0  0  0  0
   19.3262   37.2733   18.9285 C   0  0  0  0  0  0  0  0  0  0  0  0
   20.3655   35.6378   17.2980 C   0  0  0  0  0  0  0  0  0  0  0  0
   21.8540   38.3110   19.0642 F   0  0  0  0  0  0  0  0  0  0  0  0
   21.7069   37.5585   17.9792 C   0  0  0  0  0  0  0  0  0  0  0  0
   21.6550   38.3658   16.9356 F   0  0  0  0  0  0  0  0  0  0  0  0
   22.7702   36.7670   17.8748 F   0  0  0  0  0  0  0  0  0  0  0  0
   16.5084   34.7636   14.9852 C   0  0  0  0  0  0  0  0  0  0  0  0
   15.9186   35.5654   16.1498 C   0  0  0  0  0  0  0  0  0  0  0  0
   14.9410   35.0097   16.9675 C   0  0  0  0  0  0  0  0  0  0  0  0
   14.4058   35.7393   18.0259 C   0  0  0  0  0  0  0  0  0  0  0  0
   14.8405   37.0342   18.2748 C   0  0  0  0  0  0  0  0  0  0  0  0
   15.8123   37.5968   17.4591 C   0  0  0  0  0  0  0  0  0  0  0  0
   16.3521   36.8629   16.3995 C   0  0  0  0  0  0  0  0  0  0  0  0
   19.6011   32.6287   14.3826 C   0  0  0  0  0  0  0  0  0  0  0  0
   19.8240   31.1918   14.0877 N   0  0  0  0  0  0  0  0  0  0  0  0
   19.9768   30.8186   12.5099 S   0  0  0  0  0  0  0  0  0  0  0  0
   18.6527   30.6004   12.0239 O   0  0  0  0  0  0  0  0  0  0  0  0
   20.5415   31.9526   11.8285 O   0  0  0  0  0  0  0  0  0  0  0  0
   20.9159   29.5123   12.2227 C   0  0  0  0  0  0  0  0  0  0  0  0
   22.1515   29.6567   11.5908 C   0  0  0  0  0  0  0  0  0  0  0  0
   22.9819   28.5592   11.3323 C   0  0  0  0  0  0  0  0  0  0  0  0
   24.1656   28.7129   10.7155 F   0  0  0  0  0  0  0  0  0  0  0  0
   20.5338   28.2087   12.5789 C   0  0  0  0  0  0  0  0  0  0  0  0
   19.3569   27.9869   13.1830 F   0  0  0  0  0  0  0  0  0  0  0  0
   21.3601   27.1026   12.3177 C   0  0  0  0  0  0  0  0  0  0  0  0
   22.5938   27.2808   11.6927 C   0  0  0  0  0  0  0  0  0  0  0  0
   23.4193   26.2434   11.4212 F   0  0  0  0  0  0  0  0  0  0  0  0
   20.7548   30.4900   15.0188 C   0  0  0  0  0  0  0  0  0  0  0  0
   21.8793   31.4745   15.3664 C   0  0  0  0  0  0  0  0  0  0  0  0
   22.8767   31.7747   14.5009 C   0  0  0  0  0  0  0  0  0  0  0  0
   23.7258   32.7497   15.0996 C   0  0  0  0  0  0  0  0  0  0  0  0
   23.3235   33.0936   16.3352 C   0  0  0  0  0  0  0  0  0  0  0  0
   21.9570   32.2864   16.8436 S   0  0  0  0  0  0  0  0  0  0  0  0
 12 13  1  0  0  0
 13 14  1  0  0  0
 13 15  1  0  0  0
 13  9  1  0  0  0
  9 10  1  0  0  0
  9 11  2  0  0  0
 11  5  1  0  0  0
  5  6  2  0  0  0
  5  7  1  0  0  0
  7  4  1  0  0  0
  4 16  1  0  0  0
  4  1  1  0  0  0
 16 17  1  0  0  0
 17 18  2  0  0  0
 17 22  1  0  0  0
 18 19  1  0  0  0
 19 20  2  0  0  0
 20 21  1  0  0  0
 21 22  2  0  0  0
  1 23  1  0  0  0
  1  2  1  0  0  0
 23 24  1  0  0  0
 24 25  1  0  0  0
 24 37  1  0  0  0
 25 26  2  0  0  0
 25 27  2  0  0  0
 25 28  1  0  0  0
 28 29  2  0  0  0
 28 32  1  0  0  0
 29 30  1  0  0  0
 30 31  1  0  0  0
 30 35  2  0  0  0
 32 33  1  0  0  0
 32 34  2  0  0  0
 34 35  1  0  0  0
 35 36  1  0  0  0
 37 38  1  0  0  0
 38 42  1  0  0  0
 38 39  2  0  0  0
 39 40  1  0  0  0
 40 41  2  0  0  0
 41 42  1  0  0  0
  7  8  1  0  0  0
  2  3  1  0  0  0
M  END
> <minimizedAffinity>
-9.18744

$$$$
2QHZ_MZ2_A_200


 42 44  0  0  0  0  0  0  0  0999 V2000
   18.6543   28.1482   12.6891 C   0  0  0  0  0  0  0  0  0  0  0  0
   17.4031   27.7510   13.2845 O   0  0  0  0  0  0  0  0  0  0  0  0
   16.7444   27.6069   12.5871 H   0  0  0  0  0  0  0  0  0  0  0  0
   19.1924   27.0318   11.7853 C   0  0  0  0  0  0  0  0  0  0  0  0
   21.5364   26.5277   11.0935 C   0  0  0  0  0  0  0  0  0  0  0  0
   21.2171   25.9842   10.0516 O   0  0  0  0  0  0  0  0  0  0  0  0
   20.6460   27.0391   11.9638 N   0  0  0  0  0  0  0  0  0  0  0  0
   20.9999   27.4505   12.7852 H   0  0  0  0  0  0  0  0  0  0  0  0
   23.9158   27.4154   11.0273 C   0  0  0  0  0  0  0  0  0  0  0  0
   23.6713   28.5416   10.0535 C   0  0  0  0  0  0  0  0  0  0  0  0
   22.9712   26.5986   11.5191 C   0  0  0  0  0  0  0  0  0  0  0  0
   25.3852   26.3174   12.5010 F   0  0  0  0  0  0  0  0  0  0  0  0
   25.3205   27.2555   11.5623 C   0  0  0  0  0  0  0  0  0  0  0  0
   25.6718   28.4015   12.1162 F   0  0  0  0  0  0  0  0  0  0  0  0
   26.1858   26.9434   10.6022 F   0  0  0  0  0  0  0  0  0  0  0  0
   18.6859   25.6398   12.2026 C   0  0  0  0  0  0  0  0  0  0  0  0
   17.9041   24.9606   11.0737 C   0  0  0  0  0  0  0  0  0  0  0  0
   17.7422   25.5926    9.8459 C   0  0  0  0  0  0  0  0  0  0  0  0
   17.0316   24.9742    8.8205 C   0  0  0  0  0  0  0  0  0  0  0  0
   16.4720   23.7184    9.0143 C   0  0  0  0  0  0  0  0  0  0  0  0
   16.6253   23.0842   10.2393 C   0  0  0  0  0  0  0  0  0  0  0  0
   17.3419   23.7034   11.2669 C   0  0  0  0  0  0  0  0  0  0  0  0
   18.4761   29.4821   11.9351 C   0  0  0  0  0  0  0  0  0  0  0  0
   18.8998   30.5522   12.8712 N   0  0  0  0  0  0  0  0  0  0  0  0
   20.3339   31.2467   12.5345 S   0  0  0  0  0  0  0  0  0  0  0  0
   21.0649   30.2936   11.7637 O   0  0  0  0  0  0  0  0  0  0  0  0
   20.0944   32.4128   11.7271 O   0  0  0  0  0  0  0  0  0  0  0  0
   21.1859   31.6896   13.8570 C   0  0  0  0  0  0  0  0  0  0  0  0
   21.0995   32.9928   14.3481 C   0  0  0  0  0  0  0  0  0  0  0  0
   21.8135   33.4045   15.4802 C   0  0  0  0  0  0  0  0  0  0  0  0
   21.7266   34.6652   15.9366 F   0  0  0  0  0  0  0  0  0  0  0  0
   22.0349   30.8072   14.5445 C   0  0  0  0  0  0  0  0  0  0  0  0
   22.1774   29.5397   14.1295 F   0  0  0  0  0  0  0  0  0  0  0  0
   22.7581   31.2156   15.6781 C   0  0  0  0  0  0  0  0  0  0  0  0
   22.6434   32.5226   16.1499 C   0  0  0  0  0  0  0  0  0  0  0  0
   23.3228   32.9576   17.2365 F   0  0  0  0  0  0  0  0  0  0  0  0
   17.8141   31.4751   13.3133 C   0  0  0  0  0  0  0  0  0  0  0  0
   18.0171   31.7319   14.8125 C   0  0  0  0  0  0  0  0  0  0  0  0
   18.4403   30.7682   15.6647 C   0  0  0  0  0  0  0  0  0  0  0  0
   18.5749   31.3332   16.9658 C   0  0  0  0  0  0  0  0  0  0  0  0
   18.2450   32.6359   16.9980 C   0  0  0  0  0  0  0  0  0  0  0  0
   17.7561   33.2397   15.5236 S   0  0  0  0  0  0  0  0  0  0  0  0
 12 13  1  0  0  0
 13 14  1  0  0  0
 13 15  1  0  0  0
 13  9  1  0  0  0
  9 10  1  0  0  0
  9 11  2  0  0  0
 11  5  1  0  0  0
  5  6  2  0  0  0
  5  7  1  0  0  0
  7  4  1  0  0  0
  4 16  1  0  0  0
  4  1  1  0  0  0
 16 17  1  0  0  0
 17 18  2  0  0  0
 17 22  1  0  0  0
 18 19  1  0  0  0
 19 20  2  0  0  0
 20 21  1  0  0  0
 21 22  2  0  0  0
  1 23  1  0  0  0
  1  2  1  0  0  0
 23 24  1  0  0  0
 24 25  1  0  0  0
 24 37  1  0  0  0
 25 26  2  0  0  0
 25 27  2  0  0  0
 25 28  1  0  0  0
 28 29  2  0  0  0
 28 32  1  0  0  0
 29 30  1  0  0  0
 30 31  1  0  0  0
 30 35  2  0  0  0
 32 33  1  0  0  0
 32 34  2  0  0  0
 34 35  1  0  0  0
 35 36  1  0  0  0
 37 38  1  0  0  0
 38 42  1  0  0  0
 38 39  2  0  0  0
 39 40  1  0  0  0
 40 41  2  0  0  0
 41 42  1  0  0  0
  7  8  1  0  0  0
  2  3  1  0  0  0
M  END
> <minimizedAffinity>
-9.12965

$$$$
2QHZ_MZ2_A_200


 42 44  0  0  0  0  0  0  0  0999 V2000
   20.6154   29.2190   15.3917 C   0  0  0  0  0  0  0  0  0  0  0  0
   19.9071   28.3392   16.2874 O   0  0  0  0  0  0  0  0  0  0  0  0
   18.9531   28.4955   16.2069 H   0  0  0  0  0  0  0  0  0  0  0  0
   20.2314   28.9201   13.9371 C   0  0  0  0  0  0  0  0  0  0  0  0
   22.2564   28.6983   12.4959 C   0  0  0  0  0  0  0  0  0  0  0  0
   22.2033   29.8397   12.0747 O   0  0  0  0  0  0  0  0  0  0  0  0
   21.3652   28.1893   13.3667 N   0  0  0  0  0  0  0  0  0  0  0  0
   21.4850   27.2517   13.6420 H   0  0  0  0  0  0  0  0  0  0  0  0
   23.8912   27.7479   10.7994 C   0  0  0  0  0  0  0  0  0  0  0  0
   23.7343   28.8287    9.7584 C   0  0  0  0  0  0  0  0  0  0  0  0
   23.2992   27.7416   12.0039 C   0  0  0  0  0  0  0  0  0  0  0  0
   26.1163   26.9832   10.7764 F   0  0  0  0  0  0  0  0  0  0  0  0
   24.8655   26.6323   10.4977 C   0  0  0  0  0  0  0  0  0  0  0  0
   24.7990   26.3804    9.2032 F   0  0  0  0  0  0  0  0  0  0  0  0
   24.5822   25.5265   11.1797 F   0  0  0  0  0  0  0  0  0  0  0  0
   18.9965   28.0082   13.8287 C   0  0  0  0  0  0  0  0  0  0  0  0
   18.6409   27.7087   12.3690 C   0  0  0  0  0  0  0  0  0  0  0  0
   18.2674   28.7340   11.5074 C   0  0  0  0  0  0  0  0  0  0  0  0
   17.9446   28.4606   10.1808 C   0  0  0  0  0  0  0  0  0  0  0  0
   17.9886   27.1576    9.7033 C   0  0  0  0  0  0  0  0  0  0  0  0
   18.3556   26.1287   10.5595 C   0  0  0  0  0  0  0  0  0  0  0  0
   18.6833   26.4040   11.8898 C   0  0  0  0  0  0  0  0  0  0  0  0
   20.3504   30.6878   15.7811 C   0  0  0  0  0  0  0  0  0  0  0  0
   19.6233   31.2987   14.6411 N   0  0  0  0  0  0  0  0  0  0  0  0
   18.0224   31.4998   14.8616 S   0  0  0  0  0  0  0  0  0  0  0  0
   17.4185   31.3052   13.5832 O   0  0  0  0  0  0  0  0  0  0  0  0
   17.5559   30.4755   15.7573 O   0  0  0  0  0  0  0  0  0  0  0  0
   17.6127   32.9588   15.4733 C   0  0  0  0  0  0  0  0  0  0  0  0
   16.9576   33.8991   14.6773 C   0  0  0  0  0  0  0  0  0  0  0  0
   16.5899   35.1570   15.1706 C   0  0  0  0  0  0  0  0  0  0  0  0
   15.9667   36.0552   14.3896 F   0  0  0  0  0  0  0  0  0  0  0  0
   17.8999   33.3363   16.7952 C   0  0  0  0  0  0  0  0  0  0  0  0
   18.5344   32.4906   17.6206 F   0  0  0  0  0  0  0  0  0  0  0  0
   17.5382   34.5990   17.2948 C   0  0  0  0  0  0  0  0  0  0  0  0
   16.8760   35.5135   16.4768 C   0  0  0  0  0  0  0  0  0  0  0  0
   16.5112   36.7401   16.9170 F   0  0  0  0  0  0  0  0  0  0  0  0
   20.3358   32.4196   13.9615 C   0  0  0  0  0  0  0  0  0  0  0  0
   21.4958   32.8411   14.8733 C   0  0  0  0  0  0  0  0  0  0  0  0
   21.3270   33.6753   15.9267 C   0  0  0  0  0  0  0  0  0  0  0  0
   22.5757   33.8284   16.5956 C   0  0  0  0  0  0  0  0  0  0  0  0
   23.5625   33.1283   16.0100 C   0  0  0  0  0  0  0  0  0  0  0  0
   23.0739   32.2834   14.6592 S   0  0  0  0  0  0  0  0  0  0  0  0
 12 13  1  0  0  0
 13 14  1  0  0  0
 13 15  1  0  0  0
 13  9  1  0  0  0
  9 10  1  0  0  0
  9 11  2  0  0  0
 11  5  1  0  0  0
  5  6  2  0  0  0
  5  7  1  0  0  0
  7  4  1  0  0  0
  4 16  1  0  0  0
  4  1  1  0  0  0
 16 17  1  0  0  0
 17 18  2  0  0  0
 17 22  1  0  0  0
 18 19  1  0  0  0
 19 20  2  0  0  0
 20 21  1  0  0  0
 21 22  2  0  0  0
  1 23  1  0  0  0
  1  2  1  0  0  0
 23 24  1  0  0  0
 24 25  1  0  0  0
 24 37  1  0  0  0
 25 26  2  0  0  0
 25 27  2  0  0  0
 25 28  1  0  0  0
 28 29  2  0  0  0
 28 32  1  0  0  0
 29 30  1  0  0  0
 30 31  1  0  0  0
 30 35  2  0  0  0
 32 33  1  0  0  0
 32 34  2  0  0  0
 34 35  1  0  0  0
 35 36  1  0  0  0
 37 38  1  0  0  0
 38 42  1  0  0  0
 38 39  2  0  0  0
 39 40  1  0  0  0
 40 41  2  0  0  0
 41 42  1  0  0  0
  7  8  1  0  0  0
  2  3  1  0  0  0
M  END
> <minimizedAffinity>
-9.11317

$$$$
2QHZ_MZ2_A_200


 42 44  0  0  0  0  0  0  0  0999 V2000
   19.2821   31.2207   15.9623 C   0  0  0  0  0  0  0  0  0  0  0  0
   19.4583   30.6309   17.2658 O   0  0  0  0  0  0  0  0  0  0  0  0
   19.0489   31.2000   17.9362 H   0  0  0  0  0  0  0  0  0  0  0  0
   17.7904   31.3190   15.6194 C   0  0  0  0  0  0  0  0  0  0  0  0
   16.0454   32.8067   16.6036 C   0  0  0  0  0  0  0  0  0  0  0  0
   15.1346   32.0164   16.4337 O   0  0  0  0  0  0  0  0  0  0  0  0
   17.3179   32.5571   16.2431 N   0  0  0  0  0  0  0  0  0  0  0  0
   17.9837   33.2624   16.4120 H   0  0  0  0  0  0  0  0  0  0  0  0
   15.8776   35.3403   16.5215 C   0  0  0  0  0  0  0  0  0  0  0  0
   16.0972   35.4971   15.0371 C   0  0  0  0  0  0  0  0  0  0  0  0
   15.7892   34.1694   17.1714 C   0  0  0  0  0  0  0  0  0  0  0  0
   16.2162   36.5325   18.5216 F   0  0  0  0  0  0  0  0  0  0  0  0
   15.6451   36.6001   17.3239 C   0  0  0  0  0  0  0  0  0  0  0  0
   14.3433   36.7247   17.5071 F   0  0  0  0  0  0  0  0  0  0  0  0
   16.1105   37.6790   16.7016 F   0  0  0  0  0  0  0  0  0  0  0  0
   17.5402   31.4433   14.1060 C   0  0  0  0  0  0  0  0  0  0  0  0
   17.7785   30.1143   13.3823 C   0  0  0  0  0  0  0  0  0  0  0  0
   17.4625   29.9759   12.0354 C   0  0  0  0  0  0  0  0  0  0  0  0
   17.6798   28.7675   11.3786 C   0  0  0  0  0  0  0  0  0  0  0  0
   18.2121   27.6836   12.0637 C   0  0  0  0  0  0  0  0  0  0  0  0
   18.5248   27.8133   13.4096 C   0  0  0  0  0  0  0  0  0  0  0  0
   18.3103   29.0273   14.0676 C   0  0  0  0  0  0  0  0  0  0  0  0
   19.9910   32.5896   15.9060 C   0  0  0  0  0  0  0  0  0  0  0  0
   21.4318   32.3251   16.1410 N   0  0  0  0  0  0  0  0  0  0  0  0
   22.3818   32.4123   14.8211 S   0  0  0  0  0  0  0  0  0  0  0  0
   22.0976   33.6704   14.2103 O   0  0  0  0  0  0  0  0  0  0  0  0
   23.7550   32.4028   15.2496 O   0  0  0  0  0  0  0  0  0  0  0  0
   22.1555   31.1934   13.7563 C   0  0  0  0  0  0  0  0  0  0  0  0
   22.9221   30.0307   13.8414 C   0  0  0  0  0  0  0  0  0  0  0  0
   22.7520   28.9664   12.9473 C   0  0  0  0  0  0  0  0  0  0  0  0
   23.5034   27.8562   13.0367 F   0  0  0  0  0  0  0  0  0  0  0  0
   21.2088   31.2550   12.7208 C   0  0  0  0  0  0  0  0  0  0  0  0
   20.4387   32.3426   12.5682 F   0  0  0  0  0  0  0  0  0  0  0  0
   21.0367   30.1927   11.8171 C   0  0  0  0  0  0  0  0  0  0  0  0
   21.8122   29.0398   11.9341 C   0  0  0  0  0  0  0  0  0  0  0  0
   21.6801   27.9946   11.0848 F   0  0  0  0  0  0  0  0  0  0  0  0
   21.9909   32.9203   17.3896 C   0  0  0  0  0  0  0  0  0  0  0  0
   21.3736   34.3167   17.5443 C   0  0  0  0  0  0  0  0  0  0  0  0
   22.0295   35.4458   17.1853 C   0  0  0  0  0  0  0  0  0  0  0  0
   21.1736   36.5634   17.4056 C   0  0  0  0  0  0  0  0  0  0  0  0
   19.9787   36.2057   17.9068 C   0  0  0  0  0  0  0  0  0  0  0  0
   19.8183   34.5648   18.1498 S   0  0  0  0  0  0  0  0  0  0  0  0
 12 13  1  0  0  0
 13 14  1  0  0  0
 13 15  1  0  0  0
 13  9  1  0  0  0
  9 10  1  0  0  0
  9 11  2  0  0  0
 11  5  1  0  0  0
  5  6  2  0  0  0
  5  7  1  0  0  0
  7  4  1  0  0  0
  4 16  1  0  0  0
  4  1  1  0  0  0
 16 17  1  0  0  0
 17 18  2  0  0  0
 17 22  1  0  0  0
 18 19  1  0  0  0
 19 20  2  0  0  0
 20 21  1  0  0  0
 21 22  2  0  0  0
  1 23  1  0  0  0
  1  2  1  0  0  0
 23 24  1  0  0  0
 24 25  1  0  0  0
 24 37  1  0  0  0
 25 26  2  0  0  0
 25 27  2  0  0  0
 25 28  1  0  0  0
 28 29  2  0  0  0
 28 32  1  0  0  0
 29 30  1  0  0  0
 30 31  1  0  0  0
 30 35  2  0  0  0
 32 33  1  0  0  0
 32 34  2  0  0  0
 34 35  1  0  0  0
 35 36  1  0  0  0
 37 38  1  0  0  0
 38 42  1  0  0  0
 38 39  2  0  0  0
 39 40  1  0  0  0
 40 41  2  0  0  0
 41 42  1  0  0  0
  7  8  1  0  0  0
  2  3  1  0  0  0
M  END
> <minimizedAffinity>
-9.10938

$$$$
2QHZ_MZ2_A_200


 42 44  0  0  0  0  0  0  0  0999 V2000
   18.7106   31.5641   16.3089 C   0  0  0  0  0  0  0  0  0  0  0  0
   19.7286   31.1082   17.2222 O   0  0  0  0  0  0  0  0  0  0  0  0
   20.3989   31.8009   17.3311 H   0  0  0  0  0  0  0  0  0  0  0  0
   17.9966   32.7961   16.8790 C   0  0  0  0  0  0  0  0  0  0  0  0
   19.1443   34.5806   18.1926 C   0  0  0  0  0  0  0  0  0  0  0  0
   18.3525   34.5473   19.1172 O   0  0  0  0  0  0  0  0  0  0  0  0
   19.0430   33.7959   17.1037 N   0  0  0  0  0  0  0  0  0  0  0  0
   19.7262   33.9024   16.4029 H   0  0  0  0  0  0  0  0  0  0  0  0
   20.1607   36.9050   18.0582 C   0  0  0  0  0  0  0  0  0  0  0  0
   18.8667   37.6801   18.0888 C   0  0  0  0  0  0  0  0  0  0  0  0
   20.2674   35.5720   18.1733 C   0  0  0  0  0  0  0  0  0  0  0  0
   22.5136   36.9180   18.0634 F   0  0  0  0  0  0  0  0  0  0  0  0
   21.4434   37.7016   17.9868 C   0  0  0  0  0  0  0  0  0  0  0  0
   21.4682   38.5164   19.0256 F   0  0  0  0  0  0  0  0  0  0  0  0
   21.5266   38.4106   16.8651 F   0  0  0  0  0  0  0  0  0  0  0  0
   16.9869   33.4032   15.8890 C   0  0  0  0  0  0  0  0  0  0  0  0
   16.1255   34.4834   16.5507 C   0  0  0  0  0  0  0  0  0  0  0  0
   16.2587   35.8177   16.1832 C   0  0  0  0  0  0  0  0  0  0  0  0
   15.4750   36.7987   16.7852 C   0  0  0  0  0  0  0  0  0  0  0  0
   14.5523   36.4551   17.7641 C   0  0  0  0  0  0  0  0  0  0  0  0
   14.4180   35.1257   18.1394 C   0  0  0  0  0  0  0  0  0  0  0  0
   15.2019   34.1410   17.5323 C   0  0  0  0  0  0  0  0  0  0  0  0
   19.3318   31.8322   14.9227 C   0  0  0  0  0  0  0  0  0  0  0  0
   19.5323   30.5054   14.2899 N   0  0  0  0  0  0  0  0  0  0  0  0
   20.9923   29.8275   14.5373 S   0  0  0  0  0  0  0  0  0  0  0  0
   21.8001   30.8358   15.1437 O   0  0  0  0  0  0  0  0  0  0  0  0
   20.8352   28.7379   15.4632 O   0  0  0  0  0  0  0  0  0  0  0  0
   21.7033   29.2633   13.1782 C   0  0  0  0  0  0  0  0  0  0  0  0
   22.2802   27.9930   13.1589 C   0  0  0  0  0  0  0  0  0  0  0  0
   22.8947   27.4780   12.0108 C   0  0  0  0  0  0  0  0  0  0  0  0
   23.4533   26.2561   12.0098 F   0  0  0  0  0  0  0  0  0  0  0  0
   21.7772   30.0120   11.9924 C   0  0  0  0  0  0  0  0  0  0  0  0
   21.2527   31.2452   11.9337 F   0  0  0  0  0  0  0  0  0  0  0  0
   22.3970   29.5031   10.8384 C   0  0  0  0  0  0  0  0  0  0  0  0
   22.9565   28.2260   10.8481 C   0  0  0  0  0  0  0  0  0  0  0  0
   23.5638   27.6983    9.7599 F   0  0  0  0  0  0  0  0  0  0  0  0
   18.3620   29.5831   14.3651 C   0  0  0  0  0  0  0  0  0  0  0  0
   18.1733   28.9723   12.9701 C   0  0  0  0  0  0  0  0  0  0  0  0
   17.7173   29.6911   11.9169 C   0  0  0  0  0  0  0  0  0  0  0  0
   17.7029   28.8556   10.7628 C   0  0  0  0  0  0  0  0  0  0  0  0
   18.1266   27.6073   11.0258 C   0  0  0  0  0  0  0  0  0  0  0  0
   18.5408   27.3627   12.6214 S   0  0  0  0  0  0  0  0  0  0  0  0
 12 13  1  0  0  0
 13 14  1  0  0  0
 13 15  1  0  0  0
 13  9  1  0  0  0
  9 10  1  0  0  0
  9 11  2  0  0  0
 11  5  1  0  0  0
  5  6  2  0  0  0
  5  7  1  0  0  0
  7  4  1  0  0  0
  4 16  1  0  0  0
  4  1  1  0  0  0
 16 17  1  0  0  0
 17 18  2  0  0  0
 17 22  1  0  0  0
 18 19  1  0  0  0
 19 20  2  0  0  0
 20 21  1  0  0  0
 21 22  2  0  0  0
  1 23  1  0  0  0
  1  2  1  0  0  0
 23 24  1  0  0  0
 24 25  1  0  0  0
 24 37  1  0  0  0
 25 26  2  0  0  0
 25 27  2  0  0  0
 25 28  1  0  0  0
 28 29  2  0  0  0
 28 32  1  0  0  0
 29 30  1  0  0  0
 30 31  1  0  0  0
 30 35  2  0  0  0
 32 33  1  0  0  0
 32 34  2  0  0  0
 34 35  1  0  0  0
 35 36  1  0  0  0
 37 38  1  0  0  0
 38 42  1  0  0  0
 38 39  2  0  0  0
 39 40  1  0  0  0
 40 41  2  0  0  0
 41 42  1  0  0  0
  7  8  1  0  0  0
  2  3  1  0  0  0
M  END
> <minimizedAffinity>
-8.98149

$$$$
2QHZ_MZ2_A_200


 42 44  0  0  0  0  0  0  0  0999 V2000
   19.9450   28.9242   13.3005 C   0  0  0  0  0  0  0  0  0  0  0  0
   18.6040   28.3966   13.3353 O   0  0  0  0  0  0  0  0  0  0  0  0
   18.1788   28.5371   12.4748 H   0  0  0  0  0  0  0  0  0  0  0  0
   20.7843   28.1775   12.2561 C   0  0  0  0  0  0  0  0  0  0  0  0
   19.8858   26.6310   10.5159 C   0  0  0  0  0  0  0  0  0  0  0  0
   20.7217   25.7670   10.7106 O   0  0  0  0  0  0  0  0  0  0  0  0
   19.8512   27.7927   11.1948 N   0  0  0  0  0  0  0  0  0  0  0  0
   19.1428   28.4345   10.9593 H   0  0  0  0  0  0  0  0  0  0  0  0
   17.9096   25.5425    9.3481 C   0  0  0  0  0  0  0  0  0  0  0  0
   17.5833   24.5369   10.4246 C   0  0  0  0  0  0  0  0  0  0  0  0
   18.8620   26.4844    9.4319 C   0  0  0  0  0  0  0  0  0  0  0  0
   17.2744   26.6029    7.3460 F   0  0  0  0  0  0  0  0  0  0  0  0
   17.0318   25.5488    8.1175 C   0  0  0  0  0  0  0  0  0  0  0  0
   15.7767   25.6274    8.5203 F   0  0  0  0  0  0  0  0  0  0  0  0
   17.1944   24.4511    7.3850 F   0  0  0  0  0  0  0  0  0  0  0  0
   21.8623   29.0709   11.6176 C   0  0  0  0  0  0  0  0  0  0  0  0
   23.1698   28.3054   11.3907 C   0  0  0  0  0  0  0  0  0  0  0  0
   23.5056   27.8390   10.1246 C   0  0  0  0  0  0  0  0  0  0  0  0
   24.6943   27.1435    9.9196 C   0  0  0  0  0  0  0  0  0  0  0  0
   25.5578   26.9040   10.9801 C   0  0  0  0  0  0  0  0  0  0  0  0
   25.2261   27.3622   12.2475 C   0  0  0  0  0  0  0  0  0  0  0  0
   24.0349   28.0636   12.4522 C   0  0  0  0  0  0  0  0  0  0  0  0
   19.9036   30.4449   13.0450 C   0  0  0  0  0  0  0  0  0  0  0  0
   19.6217   31.0821   14.3549 N   0  0  0  0  0  0  0  0  0  0  0  0
   18.0451   31.2975   14.7013 S   0  0  0  0  0  0  0  0  0  0  0  0
   17.3483   31.1929   13.4602 O   0  0  0  0  0  0  0  0  0  0  0  0
   17.6205   30.2282   15.5648 O   0  0  0  0  0  0  0  0  0  0  0  0
   17.7119   32.7229   15.4280 C   0  0  0  0  0  0  0  0  0  0  0  0
   17.0536   33.7348   14.7281 C   0  0  0  0  0  0  0  0  0  0  0  0
   16.7503   34.9665   15.3213 C   0  0  0  0  0  0  0  0  0  0  0  0
   16.1233   35.9345   14.6321 F   0  0  0  0  0  0  0  0  0  0  0  0
   18.0700   33.0001   16.7573 C   0  0  0  0  0  0  0  0  0  0  0  0
   18.7121   32.0811   17.4937 F   0  0  0  0  0  0  0  0  0  0  0  0
   17.7731   34.2360   17.3568 C   0  0  0  0  0  0  0  0  0  0  0  0
   17.1060   35.2240   16.6336 C   0  0  0  0  0  0  0  0  0  0  0  0
   16.8022   36.4280   17.1716 F   0  0  0  0  0  0  0  0  0  0  0  0
   20.4821   30.6209   15.4831 C   0  0  0  0  0  0  0  0  0  0  0  0
   21.7086   31.5420   15.5263 C   0  0  0  0  0  0  0  0  0  0  0  0
   22.7176   31.4524   14.6274 C   0  0  0  0  0  0  0  0  0  0  0  0
   23.6735   32.4712   14.9075 C   0  0  0  0  0  0  0  0  0  0  0  0
   23.3295   33.2223   15.9678 C   0  0  0  0  0  0  0  0  0  0  0  0
   21.8949   32.7602   16.6789 S   0  0  0  0  0  0  0  0  0  0  0  0
 12 13  1  0  0  0
 13 14  1  0  0  0
 13 15  1  0  0  0
 13  9  1  0  0  0
  9 10  1  0  0  0
  9 11  2  0  0  0
 11  5  1  0  0  0
  5  6  2  0  0  0
  5  7  1  0  0  0
  7  4  1  0  0  0
  4 16  1  0  0  0
  4  1  1  0  0  0
 16 17  1  0  0  0
 17 18  2  0  0  0
 17 22  1  0  0  0
 18 19  1  0  0  0
 19 20  2  0  0  0
 20 21  1  0  0  0
 21 22  2  0  0  0
  1 23  1  0  0  0
  1  2  1  0  0  0
 23 24  1  0  0  0
 24 25  1  0  0  0
 24 37  1  0  0  0
 25 26  2  0  0  0
 25 27  2  0  0  0
 25 28  1  0  0  0
 28 29  2  0  0  0
 28 32  1  0  0  0
 29 30  1  0  0  0
 30 31  1  0  0  0
 30 35  2  0  0  0
 32 33  1  0  0  0
 32 34  2  0  0  0
 34 35  1  0  0  0
 35 36  1  0  0  0
 37 38  1  0  0  0
 38 42  1  0  0  0
 38 39  2  0  0  0
 39 40  1  0  0  0
 40 41  2  0  0  0
 41 42  1  0  0  0
  7  8  1  0  0  0
  2  3  1  0  0  0
M  END
> <minimizedAffinity>
-8.97154

$$$$
2QHZ_MZ2_A_200


 42 44  0  0  0  0  0  0  0  0999 V2000
   19.2617   29.4714   13.9400 C   0  0  0  0  0  0  0  0  0  0  0  0
   18.0611   29.0383   14.6100 O   0  0  0  0  0  0  0  0  0  0  0  0
   17.2897   29.2546   14.0631 H   0  0  0  0  0  0  0  0  0  0  0  0
   19.4286   28.7250   12.6105 C   0  0  0  0  0  0  0  0  0  0  0  0
   21.8859   28.8177   12.1857 C   0  0  0  0  0  0  0  0  0  0  0  0
   21.8609   29.9365   11.7054 O   0  0  0  0  0  0  0  0  0  0  0  0
   20.7872   28.1779   12.6274 N   0  0  0  0  0  0  0  0  0  0  0  0
   20.9061   27.2706   12.9905 H   0  0  0  0  0  0  0  0  0  0  0  0
   23.9784   27.7434   11.2258 C   0  0  0  0  0  0  0  0  0  0  0  0
   23.8506   28.2950    9.8273 C   0  0  0  0  0  0  0  0  0  0  0  0
   23.1609   28.0335   12.2500 C   0  0  0  0  0  0  0  0  0  0  0  0
   25.6974   27.1330   12.7120 F   0  0  0  0  0  0  0  0  0  0  0  0
   25.1765   26.8695   11.5186 C   0  0  0  0  0  0  0  0  0  0  0  0
   26.0984   27.1353   10.6113 F   0  0  0  0  0  0  0  0  0  0  0  0
   24.8712   25.5761   11.4745 F   0  0  0  0  0  0  0  0  0  0  0  0
   18.4580   27.5385   12.4745 C   0  0  0  0  0  0  0  0  0  0  0  0
   18.3378   27.0699   11.0210 C   0  0  0  0  0  0  0  0  0  0  0  0
   18.2587   27.9932    9.9845 C   0  0  0  0  0  0  0  0  0  0  0  0
   18.1497   27.5661    8.6637 C   0  0  0  0  0  0  0  0  0  0  0  0
   18.1147   26.2103    8.3664 C   0  0  0  0  0  0  0  0  0  0  0  0
   18.1879   25.2833    9.3967 C   0  0  0  0  0  0  0  0  0  0  0  0
   18.3013   25.7123   10.7219 C   0  0  0  0  0  0  0  0  0  0  0  0
   19.2364   31.0028   13.7566 C   0  0  0  0  0  0  0  0  0  0  0  0
   19.5599   31.5886   15.0808 N   0  0  0  0  0  0  0  0  0  0  0  0
   18.2822   32.1182   15.9406 S   0  0  0  0  0  0  0  0  0  0  0  0
   17.1778   32.1408   15.0369 O   0  0  0  0  0  0  0  0  0  0  0  0
   18.0109   31.1649   16.9832 O   0  0  0  0  0  0  0  0  0  0  0  0
   18.4994   33.5895   16.6180 C   0  0  0  0  0  0  0  0  0  0  0  0
   19.6877   34.2918   16.4139 C   0  0  0  0  0  0  0  0  0  0  0  0
   19.9052   35.5554   16.9769 C   0  0  0  0  0  0  0  0  0  0  0  0
   21.0580   36.2162   16.7782 F   0  0  0  0  0  0  0  0  0  0  0  0
   17.5303   34.2037   17.4279 C   0  0  0  0  0  0  0  0  0  0  0  0
   16.3647   33.5887   17.6776 F   0  0  0  0  0  0  0  0  0  0  0  0
   17.7444   35.4692   18.0001 C   0  0  0  0  0  0  0  0  0  0  0  0
   18.9393   36.1500   17.7698 C   0  0  0  0  0  0  0  0  0  0  0  0
   19.1869   37.3692   18.3024 F   0  0  0  0  0  0  0  0  0  0  0  0
   20.6144   30.8688   15.8526 C   0  0  0  0  0  0  0  0  0  0  0  0
   21.9065   31.6876   15.7309 C   0  0  0  0  0  0  0  0  0  0  0  0
   22.5912   31.7974   14.5677 C   0  0  0  0  0  0  0  0  0  0  0  0
   23.7076   32.6588   14.7720 C   0  0  0  0  0  0  0  0  0  0  0  0
   23.7839   33.1118   16.0352 C   0  0  0  0  0  0  0  0  0  0  0  0
   22.5712   32.5412   17.0258 S   0  0  0  0  0  0  0  0  0  0  0  0
 12 13  1  0  0  0
 13 14  1  0  0  0
 13 15  1  0  0  0
 13  9  1  0  0  0
  9 10  1  0  0  0
  9 11  2  0  0  0
 11  5  1  0  0  0
  5  6  2  0  0  0
  5  7  1  0  0  0
  7  4  1  0  0  0
  4 16  1  0  0  0
  4  1  1  0  0  0
 16 17  1  0  0  0
 17 18  2  0  0  0
 17 22  1  0  0  0
 18 19  1  0  0  0
 19 20  2  0  0  0
 20 21  1  0  0  0
 21 22  2  0  0  0
  1 23  1  0  0  0
  1  2  1  0  0  0
 23 24  1  0  0  0
 24 25  1  0  0  0
 24 37  1  0  0  0
 25 26  2  0  0  0
 25 27  2  0  0  0
 25 28  1  0  0  0
 28 29  2  0  0  0
 28 32  1  0  0  0
 29 30  1  0  0  0
 30 31  1  0  0  0
 30 35  2  0  0  0
 32 33  1  0  0  0
 32 34  2  0  0  0
 34 35  1  0  0  0
 35 36  1  0  0  0
 37 38  1  0  0  0
 38 42  1  0  0  0
 38 39  2  0  0  0
 39 40  1  0  0  0
 40 41  2  0  0  0
 41 42  1  0  0  0
  7  8  1  0  0  0
  2  3  1  0  0  0
M  END
> <minimizedAffinity>
-8.94909

$$$$
2QHZ_MZ2_A_200


 42 44  0  0  0  0  0  0  0  0999 V2000
   19.9555   29.3374   15.2071 C   0  0  0  0  0  0  0  0  0  0  0  0
   20.0614   28.3002   16.2026 O   0  0  0  0  0  0  0  0  0  0  0  0
   19.6374   28.5955   17.0236 H   0  0  0  0  0  0  0  0  0  0  0  0
   18.4826   29.6127   14.8794 C   0  0  0  0  0  0  0  0  0  0  0  0
   17.4597   31.8566   15.2611 C   0  0  0  0  0  0  0  0  0  0  0  0
   17.1426   32.0200   14.0967 O   0  0  0  0  0  0  0  0  0  0  0  0
   18.0966   30.7579   15.7068 N   0  0  0  0  0  0  0  0  0  0  0  0
   18.3208   30.7211   16.6648 H   0  0  0  0  0  0  0  0  0  0  0  0
   16.0563   33.2189   16.8824 C   0  0  0  0  0  0  0  0  0  0  0  0
   14.7866   32.4134   16.7577 C   0  0  0  0  0  0  0  0  0  0  0  0
   17.2210   32.9256   16.2834 C   0  0  0  0  0  0  0  0  0  0  0  0
   17.0903   34.3863   18.6444 F   0  0  0  0  0  0  0  0  0  0  0  0
   16.0395   34.3953   17.8315 C   0  0  0  0  0  0  0  0  0  0  0  0
   14.9548   34.2936   18.5776 F   0  0  0  0  0  0  0  0  0  0  0  0
   16.0248   35.5565   17.1838 F   0  0  0  0  0  0  0  0  0  0  0  0
   18.2711   30.0168   13.4096 C   0  0  0  0  0  0  0  0  0  0  0  0
   18.2716   28.7975   12.4821 C   0  0  0  0  0  0  0  0  0  0  0  0
   18.1728   28.9570   11.1044 C   0  0  0  0  0  0  0  0  0  0  0  0
   18.1735   27.8480   10.2623 C   0  0  0  0  0  0  0  0  0  0  0  0
   18.2693   26.5675   10.7903 C   0  0  0  0  0  0  0  0  0  0  0  0
   18.3630   26.4010   12.1650 C   0  0  0  0  0  0  0  0  0  0  0  0
   18.3662   27.5143   13.0096 C   0  0  0  0  0  0  0  0  0  0  0  0
   20.6988   30.6014   15.6858 C   0  0  0  0  0  0  0  0  0  0  0  0
   21.4380   31.1230   14.5099 N   0  0  0  0  0  0  0  0  0  0  0  0
   21.3730   32.7373   14.3045 S   0  0  0  0  0  0  0  0  0  0  0  0
   22.5774   33.1001   13.6303 O   0  0  0  0  0  0  0  0  0  0  0  0
   20.2538   33.0412   13.4535 O   0  0  0  0  0  0  0  0  0  0  0  0
   21.2185   33.5798   15.6963 C   0  0  0  0  0  0  0  0  0  0  0  0
   20.1437   34.4510   15.8781 C   0  0  0  0  0  0  0  0  0  0  0  0
   19.9797   35.1856   17.0590 C   0  0  0  0  0  0  0  0  0  0  0  0
   18.9441   36.0269   17.2163 F   0  0  0  0  0  0  0  0  0  0  0  0
   22.1406   33.4809   16.7508 C   0  0  0  0  0  0  0  0  0  0  0  0
   23.2047   32.6706   16.6490 F   0  0  0  0  0  0  0  0  0  0  0  0
   21.9847   34.2192   17.9362 C   0  0  0  0  0  0  0  0  0  0  0  0
   20.8947   35.0748   18.0913 C   0  0  0  0  0  0  0  0  0  0  0  0
   20.7073   35.8050   19.2152 F   0  0  0  0  0  0  0  0  0  0  0  0
   22.7630   30.4848   14.2592 C   0  0  0  0  0  0  0  0  0  0  0  0
   22.6213   29.6216   12.9984 C   0  0  0  0  0  0  0  0  0  0  0  0
   21.7198   29.8968   12.0260 C   0  0  0  0  0  0  0  0  0  0  0  0
   21.8725   28.9456   10.9763 C   0  0  0  0  0  0  0  0  0  0  0  0
   22.8399   28.0480   11.2316 C   0  0  0  0  0  0  0  0  0  0  0  0
   23.5910   28.2728   12.7022 S   0  0  0  0  0  0  0  0  0  0  0  0
 12 13  1  0  0  0
 13 14  1  0  0  0
 13 15  1  0  0  0
 13  9  1  0  0  0
  9 10  1  0  0  0
  9 11  2  0  0  0
 11  5  1  0  0  0
  5  6  2  0  0  0
  5  7  1  0  0  0
  7  4  1  0  0  0
  4 16  1  0  0  0
  4  1  1  0  0  0
 16 17  1  0  0  0
 17 18  2  0  0  0
 17 22  1  0  0  0
 18 19  1  0  0  0
 19 20  2  0  0  0
 20 21  1  0  0  0
 21 22  2  0  0  0
  1 23  1  0  0  0
  1  2  1  0  0  0
 23 24  1  0  0  0
 24 25  1  0  0  0
 24 37  1  0  0  0
 25 26  2  0  0  0
 25 27  2  0  0  0
 25 28  1  0  0  0
 28 29  2  0  0  0
 28 32  1  0  0  0
 29 30  1  0  0  0
 30 31  1  0  0  0
 30 35  2  0  0  0
 32 33  1  0  0  0
 32 34  2  0  0  0
 34 35  1  0  0  0
 35 36  1  0  0  0
 37 38  1  0  0  0
 38 42  1  0  0  0
 38 39  2  0  0  0
 39 40  1  0  0  0
 40 41  2  0  0  0
 41 42  1  0  0  0
  7  8  1  0  0  0
  2  3  1  0  0  0
M  END
> <minimizedAffinity>
-8.91165

$$$$
2QHZ_MZ2_A_200


 42 44  0  0  0  0  0  0  0  0999 V2000
   19.6962   30.3899   13.6125 C   0  0  0  0  0  0  0  0  0  0  0  0
   19.5964   31.4537   12.6448 O   0  0  0  0  0  0  0  0  0  0  0  0
   20.4165   31.9718   12.6482 H   0  0  0  0  0  0  0  0  0  0  0  0
   20.8347   29.4332   13.2369 C   0  0  0  0  0  0  0  0  0  0  0  0
   19.2621   27.9627   11.9753 C   0  0  0  0  0  0  0  0  0  0  0  0
   18.8372   28.8574   11.2668 O   0  0  0  0  0  0  0  0  0  0  0  0
   20.1947   28.1528   12.9271 N   0  0  0  0  0  0  0  0  0  0  0  0
   20.4681   27.3694   13.4568 H   0  0  0  0  0  0  0  0  0  0  0  0
   19.3159   25.5006   11.3515 C   0  0  0  0  0  0  0  0  0  0  0  0
   20.7521   25.4525   10.8917 C   0  0  0  0  0  0  0  0  0  0  0  0
   18.7081   26.5738   11.8807 C   0  0  0  0  0  0  0  0  0  0  0  0
   18.4796   23.7156   10.0667 F   0  0  0  0  0  0  0  0  0  0  0  0
   18.5284   24.2114   11.2983 C   0  0  0  0  0  0  0  0  0  0  0  0
   17.2907   24.4815   11.6709 F   0  0  0  0  0  0  0  0  0  0  0  0
   19.0401   23.2826   12.1005 F   0  0  0  0  0  0  0  0  0  0  0  0
   21.5922   29.8845   11.9756 C   0  0  0  0  0  0  0  0  0  0  0  0
   22.7615   28.9489   11.6530 C   0  0  0  0  0  0  0  0  0  0  0  0
   23.5978   28.4878   12.6635 C   0  0  0  0  0  0  0  0  0  0  0  0
   24.6602   27.6372   12.3691 C   0  0  0  0  0  0  0  0  0  0  0  0
   24.8993   27.2421   11.0598 C   0  0  0  0  0  0  0  0  0  0  0  0
   24.0715   27.7029   10.0456 C   0  0  0  0  0  0  0  0  0  0  0  0
   23.0030   28.5534   10.3419 C   0  0  0  0  0  0  0  0  0  0  0  0
   19.8665   30.9819   15.0267 C   0  0  0  0  0  0  0  0  0  0  0  0
   19.1076   32.2566   15.0414 N   0  0  0  0  0  0  0  0  0  0  0  0
   17.5078   32.1135   15.3100 S   0  0  0  0  0  0  0  0  0  0  0  0
   16.9270   31.7458   14.0592 O   0  0  0  0  0  0  0  0  0  0  0  0
   17.2999   31.0458   16.2513 O   0  0  0  0  0  0  0  0  0  0  0  0
   16.8063   33.4702   15.8914 C   0  0  0  0  0  0  0  0  0  0  0  0
   16.2181   33.4738   17.1567 C   0  0  0  0  0  0  0  0  0  0  0  0
   15.6114   34.6194   17.6862 C   0  0  0  0  0  0  0  0  0  0  0  0
   15.0417   34.6053   18.9030 F   0  0  0  0  0  0  0  0  0  0  0  0
   16.7518   34.6696   15.1629 C   0  0  0  0  0  0  0  0  0  0  0  0
   17.2881   34.7439   13.9357 F   0  0  0  0  0  0  0  0  0  0  0  0
   16.1399   35.8212   15.6864 C   0  0  0  0  0  0  0  0  0  0  0  0
   15.5688   35.7954   16.9581 C   0  0  0  0  0  0  0  0  0  0  0  0
   14.9684   36.8808   17.4994 F   0  0  0  0  0  0  0  0  0  0  0  0
   19.7874   33.3919   15.7306 C   0  0  0  0  0  0  0  0  0  0  0  0
   21.2987   33.1446   15.6331 C   0  0  0  0  0  0  0  0  0  0  0  0
   21.9615   33.1475   14.4521 C   0  0  0  0  0  0  0  0  0  0  0  0
   23.3483   32.9389   14.7038 C   0  0  0  0  0  0  0  0  0  0  0  0
   23.6173   32.7897   16.0123 C   0  0  0  0  0  0  0  0  0  0  0  0
   22.2682   32.8735   16.9872 S   0  0  0  0  0  0  0  0  0  0  0  0
 12 13  1  0  0  0
 13 14  1  0  0  0
 13 15  1  0  0  0
 13  9  1  0  0  0
  9 10  1  0  0  0
  9 11  2  0  0  0
 11  5  1  0  0  0
  5  6  2  0  0  0
  5  7  1  0  0  0
  7  4  1  0  0  0
  4 16  1  0  0  0
  4  1  1  0  0  0
 16 17  1  0  0  0
 17 18  2  0  0  0
 17 22  1  0  0  0
 18 19  1  0  0  0
 19 20  2  0  0  0
 20 21  1  0  0  0
 21 22  2  0  0  0
  1 23  1  0  0  0
  1  2  1  0  0  0
 23 24  1  0  0  0
 24 25  1  0  0  0
 24 37  1  0  0  0
 25 26  2  0  0  0
 25 27  2  0  0  0
 25 28  1  0  0  0
 28 29  2  0  0  0
 28 32  1  0  0  0
 29 30  1  0  0  0
 30 31  1  0  0  0
 30 35  2  0  0  0
 32 33  1  0  0  0
 32 34  2  0  0  0
 34 35  1  0  0  0
 35 36  1  0  0  0
 37 38  1  0  0  0
 38 42  1  0  0  0
 38 39  2  0  0  0
 39 40  1  0  0  0
 40 41  2  0  0  0
 41 42  1  0  0  0
  7  8  1  0  0  0
  2  3  1  0  0  0
M  END
> <minimizedAffinity>
-8.84683

$$$$
