5ACY_9S3_A_1172


 35 39  0  0  0  0  0  0  0  0999 V2000
   -3.6095   -9.9044   17.4678 O   0  0  0  0  0  0  0  0  0  0  0  0
   -3.3092   -8.8969   18.1076 C   0  0  0  0  0  0  0  0  0  0  0  0
   -4.0430   -7.5978   17.9107 C   0  0  0  0  0  0  0  0  0  0  0  0
   -2.2773   -8.9670   19.0461 N   0  0  0  0  0  0  0  0  0  0  0  0
   -1.6029  -10.2879   19.1869 C   0  0  0  0  0  0  0  0  0  0  0  0
   -0.4572  -10.4224   18.1943 C   0  0  0  0  0  0  0  0  0  0  0  0
   -1.8240   -7.8813   19.8560 C   0  0  0  0  0  0  0  0  0  0  0  0
   -1.5737   -8.1301   21.2063 C   0  0  0  0  0  0  0  0  0  0  0  0
   -1.8168   -9.5539   21.6215 C   0  0  0  0  0  0  0  0  0  0  0  0
   -1.1644  -10.5254   20.6413 C   0  0  0  0  0  0  0  0  0  0  0  0
   -1.6220   -6.5972   19.3528 C   0  0  0  0  0  0  0  0  0  0  0  0
   -1.1849   -5.5768   20.1722 C   0  0  0  0  0  0  0  0  0  0  0  0
   -0.9206   -5.8058   21.5263 C   0  0  0  0  0  0  0  0  0  0  0  0
   -1.1245   -7.1007   22.0260 C   0  0  0  0  0  0  0  0  0  0  0  0
   -0.4445   -4.6785   22.4305 C   0  0  0  0  0  0  0  0  0  0  0  0
   -0.9507   -3.3898   22.2958 C   0  0  0  0  0  0  0  0  0  0  0  0
   -0.5328   -2.3676   23.1279 C   0  0  0  0  0  0  0  0  0  0  0  0
    0.4256   -2.5924   24.1055 C   0  0  0  0  0  0  0  0  0  0  0  0
    0.9259   -3.8847   24.2459 C   0  0  0  0  0  0  0  0  0  0  0  0
    0.5070   -4.9069   23.4138 C   0  0  0  0  0  0  0  0  0  0  0  0
    0.8761   -1.4804   25.0286 C   0  0  0  0  0  0  0  0  0  0  0  0
   -0.2041   -0.6510   25.5861 N   0  0  0  0  0  0  0  0  0  0  0  0
   -0.6063   -1.1514   26.9099 C   0  0  0  0  0  0  0  0  0  0  0  0
   -1.7278   -0.3434   27.5320 C   0  0  0  0  0  0  0  0  0  0  0  0
   -1.3574    1.1234   27.6247 C   0  0  0  0  0  0  0  0  0  0  0  0
   -0.8939    1.6393   26.2799 C   0  0  0  0  0  0  0  0  0  0  0  0
    0.1979    0.7568   25.7008 C   0  0  0  0  0  0  0  0  0  0  0  0
   -1.4268   -9.8233   22.9931 N   0  0  0  0  0  0  0  0  0  0  0  0
   -0.4648   -9.9144   23.1813 H   0  0  0  0  0  0  0  0  0  0  0  0
   -2.3057   -9.9631   24.0643 C   0  0  0  0  0  0  0  0  0  0  0  0
   -2.4412  -11.2022   24.6790 C   0  0  0  0  0  0  0  0  0  0  0  0
   -3.3266  -11.3620   25.7323 C   0  0  0  0  0  0  0  0  0  0  0  0
   -4.0771  -10.2950   26.1800 C   0  0  0  0  0  0  0  0  0  0  0  0
   -3.9501   -9.0672   25.5696 C   0  0  0  0  0  0  0  0  0  0  0  0
   -3.0664   -8.8939   24.5207 C   0  0  0  0  0  0  0  0  0  0  0  0
  1  2  2  0  0  0
  2  3  1  0  0  0
  2  4  1  0  0  0
  4  5  1  0  0  0
  4  7  1  0  0  0
  5  6  1  0  0  0
  5 10  1  0  0  0
  7  8  1  0  0  0
  7 11  2  0  0  0
  8  9  1  0  0  0
  8 14  2  0  0  0
  9 28  1  0  0  0
  9 10  1  0  0  0
 28 30  1  0  0  0
 30 31  1  0  0  0
 30 35  2  0  0  0
 31 32  2  0  0  0
 32 33  1  0  0  0
 33 34  2  0  0  0
 34 35  1  0  0  0
 11 12  1  0  0  0
 12 13  2  0  0  0
 13 14  1  0  0  0
 13 15  1  0  0  0
 15 16  1  0  0  0
 15 20  2  0  0  0
 16 17  2  0  0  0
 17 18  1  0  0  0
 18 19  2  0  0  0
 18 21  1  0  0  0
 19 20  1  0  0  0
 21 22  1  0  0  0
 22 23  1  0  0  0
 22 27  1  0  0  0
 23 24  1  0  0  0
 24 25  1  0  0  0
 25 26  1  0  0  0
 26 27  1  0  0  0
 28 29  1  0  0  0
M  END
> <minimizedAffinity>
-9.68253

$$$$
5ACY_9S3_A_1172


 35 39  0  0  0  0  0  0  0  0999 V2000
   -3.9863  -10.0457   17.6836 O   0  0  0  0  0  0  0  0  0  0  0  0
   -3.5979   -8.9409   18.0622 C   0  0  0  0  0  0  0  0  0  0  0  0
   -4.2261   -7.6731   17.5493 C   0  0  0  0  0  0  0  0  0  0  0  0
   -2.5644   -8.8649   18.9984 N   0  0  0  0  0  0  0  0  0  0  0  0
   -1.9978  -10.1626   19.4617 C   0  0  0  0  0  0  0  0  0  0  0  0
   -0.8783  -10.6269   18.5413 C   0  0  0  0  0  0  0  0  0  0  0  0
   -2.0152   -7.6558   19.5242 C   0  0  0  0  0  0  0  0  0  0  0  0
   -1.7705   -7.5888   20.8967 C   0  0  0  0  0  0  0  0  0  0  0  0
   -2.1235   -8.8446   21.6432 C   0  0  0  0  0  0  0  0  0  0  0  0
   -1.5634  -10.0748   20.9339 C   0  0  0  0  0  0  0  0  0  0  0  0
   -1.7154   -6.5531   18.7260 C   0  0  0  0  0  0  0  0  0  0  0  0
   -1.1876   -5.4035   19.2768 C   0  0  0  0  0  0  0  0  0  0  0  0
   -0.9273   -5.3176   20.6482 C   0  0  0  0  0  0  0  0  0  0  0  0
   -1.2299   -6.4315   21.4456 C   0  0  0  0  0  0  0  0  0  0  0  0
   -0.3510   -4.0472   21.2555 C   0  0  0  0  0  0  0  0  0  0  0  0
   -0.8640   -3.5212   22.4367 C   0  0  0  0  0  0  0  0  0  0  0  0
   -0.3303   -2.3768   23.0001 C   0  0  0  0  0  0  0  0  0  0  0  0
    0.7169   -1.7036   22.3878 C   0  0  0  0  0  0  0  0  0  0  0  0
    1.2361   -2.2353   21.2098 C   0  0  0  0  0  0  0  0  0  0  0  0
    0.7024   -3.3804   20.6471 C   0  0  0  0  0  0  0  0  0  0  0  0
    1.3144   -0.4585   23.0078 C   0  0  0  0  0  0  0  0  0  0  0  0
    0.6925    0.8093   22.5938 N   0  0  0  0  0  0  0  0  0  0  0  0
    0.3135    1.6056   23.7715 C   0  0  0  0  0  0  0  0  0  0  0  0
   -0.3456    2.9214   23.4087 C   0  0  0  0  0  0  0  0  0  0  0  0
    0.5411    3.7421   22.4935 C   0  0  0  0  0  0  0  0  0  0  0  0
    0.9793    2.9191   21.3018 C   0  0  0  0  0  0  0  0  0  0  0  0
    1.5897    1.5998   21.7413 C   0  0  0  0  0  0  0  0  0  0  0  0
   -1.7410   -8.8038   23.0424 N   0  0  0  0  0  0  0  0  0  0  0  0
   -0.8724   -8.3962   23.2632 H   0  0  0  0  0  0  0  0  0  0  0  0
   -2.5053   -9.2955   24.0977 C   0  0  0  0  0  0  0  0  0  0  0  0
   -2.3833  -10.6303   24.4650 C   0  0  0  0  0  0  0  0  0  0  0  0
   -3.1519  -11.1392   25.4991 C   0  0  0  0  0  0  0  0  0  0  0  0
   -4.0401  -10.3269   26.1725 C   0  0  0  0  0  0  0  0  0  0  0  0
   -4.1681   -9.0053   25.8074 C   0  0  0  0  0  0  0  0  0  0  0  0
   -3.4033   -8.4845   24.7803 C   0  0  0  0  0  0  0  0  0  0  0  0
  1  2  2  0  0  0
  2  3  1  0  0  0
  2  4  1  0  0  0
  4  5  1  0  0  0
  4  7  1  0  0  0
  5  6  1  0  0  0
  5 10  1  0  0  0
  7  8  1  0  0  0
  7 11  2  0  0  0
  8  9  1  0  0  0
  8 14  2  0  0  0
  9 28  1  0  0  0
  9 10  1  0  0  0
 28 30  1  0  0  0
 30 31  1  0  0  0
 30 35  2  0  0  0
 31 32  2  0  0  0
 32 33  1  0  0  0
 33 34  2  0  0  0
 34 35  1  0  0  0
 11 12  1  0  0  0
 12 13  2  0  0  0
 13 14  1  0  0  0
 13 15  1  0  0  0
 15 16  1  0  0  0
 15 20  2  0  0  0
 16 17  2  0  0  0
 17 18  1  0  0  0
 18 19  2  0  0  0
 18 21  1  0  0  0
 19 20  1  0  0  0
 21 22  1  0  0  0
 22 23  1  0  0  0
 22 27  1  0  0  0
 23 24  1  0  0  0
 24 25  1  0  0  0
 25 26  1  0  0  0
 26 27  1  0  0  0
 28 29  1  0  0  0
M  END
> <minimizedAffinity>
-9.66664

$$$$
5ACY_9S3_A_1172


 35 39  0  0  0  0  0  0  0  0999 V2000
   -4.1135   -9.9584   17.7651 O   0  0  0  0  0  0  0  0  0  0  0  0
   -3.6600   -8.8938   18.1840 C   0  0  0  0  0  0  0  0  0  0  0  0
   -4.2422   -7.5734   17.7566 C   0  0  0  0  0  0  0  0  0  0  0  0
   -2.5943   -8.9141   19.0864 N   0  0  0  0  0  0  0  0  0  0  0  0
   -2.0766  -10.2588   19.4649 C   0  0  0  0  0  0  0  0  0  0  0  0
   -1.0112  -10.7275   18.4844 C   0  0  0  0  0  0  0  0  0  0  0  0
   -1.9703   -7.7604   19.6518 C   0  0  0  0  0  0  0  0  0  0  0  0
   -1.6782   -7.7751   21.0166 C   0  0  0  0  0  0  0  0  0  0  0  0
   -2.0674   -9.0494   21.7119 C   0  0  0  0  0  0  0  0  0  0  0  0
   -1.5909  -10.2667   20.9237 C   0  0  0  0  0  0  0  0  0  0  0  0
   -1.6434   -6.6337   18.8991 C   0  0  0  0  0  0  0  0  0  0  0  0
   -1.0429   -5.5396   19.4874 C   0  0  0  0  0  0  0  0  0  0  0  0
   -0.7344   -5.5361   20.8514 C   0  0  0  0  0  0  0  0  0  0  0  0
   -1.0646   -6.6738   21.6029 C   0  0  0  0  0  0  0  0  0  0  0  0
   -0.0777   -4.3267   21.5004 C   0  0  0  0  0  0  0  0  0  0  0  0
    0.4019   -3.2724   20.7300 C   0  0  0  0  0  0  0  0  0  0  0  0
    0.9830   -2.1643   21.3184 C   0  0  0  0  0  0  0  0  0  0  0  0
    1.1292   -2.0841   22.6957 C   0  0  0  0  0  0  0  0  0  0  0  0
    0.6411   -3.1359   23.4674 C   0  0  0  0  0  0  0  0  0  0  0  0
    0.0593   -4.2437   22.8784 C   0  0  0  0  0  0  0  0  0  0  0  0
    1.7515   -0.8669   23.3459 C   0  0  0  0  0  0  0  0  0  0  0  0
    3.0201   -1.1112   24.0506 N   0  0  0  0  0  0  0  0  0  0  0  0
    4.0322   -1.6373   23.1214 C   0  0  0  0  0  0  0  0  0  0  0  0
    5.3609   -1.9217   23.7930 C   0  0  0  0  0  0  0  0  0  0  0  0
    5.8940   -0.6876   24.4930 C   0  0  0  0  0  0  0  0  0  0  0  0
    4.8449   -0.1066   25.4157 C   0  0  0  0  0  0  0  0  0  0  0  0
    3.5316    0.1106   24.6848 C   0  0  0  0  0  0  0  0  0  0  0  0
   -1.6382   -9.0980   23.0973 N   0  0  0  0  0  0  0  0  0  0  0  0
   -0.7178   -8.8114   23.2970 H   0  0  0  0  0  0  0  0  0  0  0  0
   -2.4253   -9.5180   24.1667 C   0  0  0  0  0  0  0  0  0  0  0  0
   -2.4185  -10.8582   24.5345 C   0  0  0  0  0  0  0  0  0  0  0  0
   -3.2118  -11.2948   25.5829 C   0  0  0  0  0  0  0  0  0  0  0  0
   -4.0107  -10.4050   26.2700 C   0  0  0  0  0  0  0  0  0  0  0  0
   -4.0247   -9.0773   25.9047 C   0  0  0  0  0  0  0  0  0  0  0  0
   -3.2339   -8.6285   24.8633 C   0  0  0  0  0  0  0  0  0  0  0  0
  1  2  2  0  0  0
  2  3  1  0  0  0
  2  4  1  0  0  0
  4  5  1  0  0  0
  4  7  1  0  0  0
  5  6  1  0  0  0
  5 10  1  0  0  0
  7  8  1  0  0  0
  7 11  2  0  0  0
  8  9  1  0  0  0
  8 14  2  0  0  0
  9 28  1  0  0  0
  9 10  1  0  0  0
 28 30  1  0  0  0
 30 31  1  0  0  0
 30 35  2  0  0  0
 31 32  2  0  0  0
 32 33  1  0  0  0
 33 34  2  0  0  0
 34 35  1  0  0  0
 11 12  1  0  0  0
 12 13  2  0  0  0
 13 14  1  0  0  0
 13 15  1  0  0  0
 15 16  1  0  0  0
 15 20  2  0  0  0
 16 17  2  0  0  0
 17 18  1  0  0  0
 18 19  2  0  0  0
 18 21  1  0  0  0
 19 20  1  0  0  0
 21 22  1  0  0  0
 22 23  1  0  0  0
 22 27  1  0  0  0
 23 24  1  0  0  0
 24 25  1  0  0  0
 25 26  1  0  0  0
 26 27  1  0  0  0
 28 29  1  0  0  0
M  END
> <minimizedAffinity>
-9.46892

$$$$
5ACY_9S3_A_1172


 35 39  0  0  0  0  0  0  0  0999 V2000
   -0.3335  -10.4036   24.4890 O   0  0  0  0  0  0  0  0  0  0  0  0
    0.1103   -9.2832   24.2390 C   0  0  0  0  0  0  0  0  0  0  0  0
    1.5289   -8.9106   24.5766 C   0  0  0  0  0  0  0  0  0  0  0  0
   -0.7157   -8.3458   23.6151 N   0  0  0  0  0  0  0  0  0  0  0  0
   -2.1040   -8.7909   23.3086 C   0  0  0  0  0  0  0  0  0  0  0  0
   -3.0289   -8.5414   24.4910 C   0  0  0  0  0  0  0  0  0  0  0  0
   -0.3355   -7.0136   23.2673 C   0  0  0  0  0  0  0  0  0  0  0  0
   -0.7080   -6.5317   22.0115 C   0  0  0  0  0  0  0  0  0  0  0  0
   -1.4892   -7.5151   21.1859 C   0  0  0  0  0  0  0  0  0  0  0  0
   -2.6100   -8.1462   22.0077 C   0  0  0  0  0  0  0  0  0  0  0  0
    0.3837   -6.1851   24.1271 C   0  0  0  0  0  0  0  0  0  0  0  0
    0.7320   -4.9046   23.7489 C   0  0  0  0  0  0  0  0  0  0  0  0
    0.3624   -4.3990   22.4986 C   0  0  0  0  0  0  0  0  0  0  0  0
   -0.3627   -5.2376   21.6387 C   0  0  0  0  0  0  0  0  0  0  0  0
    0.7522   -2.9891   22.0801 C   0  0  0  0  0  0  0  0  0  0  0  0
    0.3750   -1.8863   22.8396 C   0  0  0  0  0  0  0  0  0  0  0  0
    0.7431   -0.6056   22.4710 C   0  0  0  0  0  0  0  0  0  0  0  0
    1.4779   -0.3807   21.3159 C   0  0  0  0  0  0  0  0  0  0  0  0
    1.8629   -1.4857   20.5603 C   0  0  0  0  0  0  0  0  0  0  0  0
    1.4950   -2.7666   20.9298 C   0  0  0  0  0  0  0  0  0  0  0  0
    1.8959    1.0181   20.9155 C   0  0  0  0  0  0  0  0  0  0  0  0
    2.9605    1.0892   19.9021 N   0  0  0  0  0  0  0  0  0  0  0  0
    2.4269    1.6001   18.6298 C   0  0  0  0  0  0  0  0  0  0  0  0
    3.4765    1.6845   17.5394 C   0  0  0  0  0  0  0  0  0  0  0  0
    4.6558    2.5281   17.9810 C   0  0  0  0  0  0  0  0  0  0  0  0
    5.1841    2.0444   19.3138 C   0  0  0  0  0  0  0  0  0  0  0  0
    4.0705    1.9446   20.3415 C   0  0  0  0  0  0  0  0  0  0  0  0
   -1.9794   -6.9531   19.9410 N   0  0  0  0  0  0  0  0  0  0  0  0
   -1.8327   -5.9915   19.7889 H   0  0  0  0  0  0  0  0  0  0  0  0
   -2.6409   -7.6663   18.9443 C   0  0  0  0  0  0  0  0  0  0  0  0
   -2.0132   -8.7567   18.3540 C   0  0  0  0  0  0  0  0  0  0  0  0
   -2.6499   -9.4635   17.3470 C   0  0  0  0  0  0  0  0  0  0  0  0
   -3.9097   -9.0933   16.9250 C   0  0  0  0  0  0  0  0  0  0  0  0
   -4.5324   -8.0097   17.5033 C   0  0  0  0  0  0  0  0  0  0  0  0
   -3.9093   -7.2993   18.5124 C   0  0  0  0  0  0  0  0  0  0  0  0
  1  2  2  0  0  0
  2  3  1  0  0  0
  2  4  1  0  0  0
  4  5  1  0  0  0
  4  7  1  0  0  0
  5  6  1  0  0  0
  5 10  1  0  0  0
  7  8  1  0  0  0
  7 11  2  0  0  0
  8  9  1  0  0  0
  8 14  2  0  0  0
  9 28  1  0  0  0
  9 10  1  0  0  0
 28 30  1  0  0  0
 30 31  1  0  0  0
 30 35  2  0  0  0
 31 32  2  0  0  0
 32 33  1  0  0  0
 33 34  2  0  0  0
 34 35  1  0  0  0
 11 12  1  0  0  0
 12 13  2  0  0  0
 13 14  1  0  0  0
 13 15  1  0  0  0
 15 16  1  0  0  0
 15 20  2  0  0  0
 16 17  2  0  0  0
 17 18  1  0  0  0
 18 19  2  0  0  0
 18 21  1  0  0  0
 19 20  1  0  0  0
 21 22  1  0  0  0
 22 23  1  0  0  0
 22 27  1  0  0  0
 23 24  1  0  0  0
 24 25  1  0  0  0
 25 26  1  0  0  0
 26 27  1  0  0  0
 28 29  1  0  0  0
M  END
> <minimizedAffinity>
-8.87192

$$$$
5ACY_9S3_A_1172


 35 39  0  0  0  0  0  0  0  0999 V2000
    4.2169    1.4937   23.5145 O   0  0  0  0  0  0  0  0  0  0  0  0
    3.7643    0.4003   23.1769 C   0  0  0  0  0  0  0  0  0  0  0  0
    4.5810   -0.8575   23.3045 C   0  0  0  0  0  0  0  0  0  0  0  0
    2.4609    0.3250   22.6810 N   0  0  0  0  0  0  0  0  0  0  0  0
    1.7151    1.6114   22.5896 C   0  0  0  0  0  0  0  0  0  0  0  0
    1.9817    2.3017   21.2598 C   0  0  0  0  0  0  0  0  0  0  0  0
    1.8092   -0.8717   22.2529 C   0  0  0  0  0  0  0  0  0  0  0  0
    0.4865   -1.0760   22.6487 C   0  0  0  0  0  0  0  0  0  0  0  0
   -0.0798    0.0353   23.4873 C   0  0  0  0  0  0  0  0  0  0  0  0
    0.2172    1.3952   22.8608 C   0  0  0  0  0  0  0  0  0  0  0  0
    2.4374   -1.8314   21.4609 C   0  0  0  0  0  0  0  0  0  0  0  0
    1.7702   -2.9748   21.0720 C   0  0  0  0  0  0  0  0  0  0  0  0
    0.4423   -3.1960   21.4508 C   0  0  0  0  0  0  0  0  0  0  0  0
   -0.1846   -2.2254   22.2465 C   0  0  0  0  0  0  0  0  0  0  0  0
   -0.2907   -4.4600   21.0265 C   0  0  0  0  0  0  0  0  0  0  0  0
   -0.8134   -5.3365   21.9717 C   0  0  0  0  0  0  0  0  0  0  0  0
   -1.4953   -6.4766   21.5886 C   0  0  0  0  0  0  0  0  0  0  0  0
   -1.6546   -6.7939   20.2474 C   0  0  0  0  0  0  0  0  0  0  0  0
   -1.1388   -5.9116   19.3010 C   0  0  0  0  0  0  0  0  0  0  0  0
   -0.4574   -4.7710   19.6848 C   0  0  0  0  0  0  0  0  0  0  0  0
   -2.4128   -8.0333   19.8222 C   0  0  0  0  0  0  0  0  0  0  0  0
   -2.8963   -8.0274   18.4323 N   0  0  0  0  0  0  0  0  0  0  0  0
   -3.2910   -9.3831   18.0188 C   0  0  0  0  0  0  0  0  0  0  0  0
   -3.7873   -9.4441   16.5879 C   0  0  0  0  0  0  0  0  0  0  0  0
   -4.9370   -8.4813   16.3673 C   0  0  0  0  0  0  0  0  0  0  0  0
   -4.5620   -7.0918   16.8346 C   0  0  0  0  0  0  0  0  0  0  0  0
   -4.0346   -7.1159   18.2584 C   0  0  0  0  0  0  0  0  0  0  0  0
   -1.4917   -0.1315   23.7782 N   0  0  0  0  0  0  0  0  0  0  0  0
   -2.0095   -0.7240   23.1866 H   0  0  0  0  0  0  0  0  0  0  0  0
   -2.1722    0.4803   24.8281 C   0  0  0  0  0  0  0  0  0  0  0  0
   -1.9828    0.0190   26.1253 C   0  0  0  0  0  0  0  0  0  0  0  0
   -2.6683    0.6038   27.1775 C   0  0  0  0  0  0  0  0  0  0  0  0
   -3.5401    1.6474   26.9473 C   0  0  0  0  0  0  0  0  0  0  0  0
   -3.7350    2.1032   25.6625 C   0  0  0  0  0  0  0  0  0  0  0  0
   -3.0532    1.5311   24.6047 C   0  0  0  0  0  0  0  0  0  0  0  0
  1  2  2  0  0  0
  2  3  1  0  0  0
  2  4  1  0  0  0
  4  5  1  0  0  0
  4  7  1  0  0  0
  5  6  1  0  0  0
  5 10  1  0  0  0
  7  8  1  0  0  0
  7 11  2  0  0  0
  8  9  1  0  0  0
  8 14  2  0  0  0
  9 28  1  0  0  0
  9 10  1  0  0  0
 28 30  1  0  0  0
 30 31  1  0  0  0
 30 35  2  0  0  0
 31 32  2  0  0  0
 32 33  1  0  0  0
 33 34  2  0  0  0
 34 35  1  0  0  0
 11 12  1  0  0  0
 12 13  2  0  0  0
 13 14  1  0  0  0
 13 15  1  0  0  0
 15 16  1  0  0  0
 15 20  2  0  0  0
 16 17  2  0  0  0
 17 18  1  0  0  0
 18 19  2  0  0  0
 18 21  1  0  0  0
 19 20  1  0  0  0
 21 22  1  0  0  0
 22 23  1  0  0  0
 22 27  1  0  0  0
 23 24  1  0  0  0
 24 25  1  0  0  0
 25 26  1  0  0  0
 26 27  1  0  0  0
 28 29  1  0  0  0
M  END
> <minimizedAffinity>
-8.84393

$$$$
5ACY_9S3_A_1172


 35 39  0  0  0  0  0  0  0  0999 V2000
   -3.9884  -10.0430   17.9267 O   0  0  0  0  0  0  0  0  0  0  0  0
   -3.5624   -8.9356   18.2535 C   0  0  0  0  0  0  0  0  0  0  0  0
   -4.0879   -7.6766   17.6180 C   0  0  0  0  0  0  0  0  0  0  0  0
   -2.5833   -8.8468   19.2454 N   0  0  0  0  0  0  0  0  0  0  0  0
   -2.1179  -10.1358   19.8296 C   0  0  0  0  0  0  0  0  0  0  0  0
   -0.9734  -10.7208   19.0146 C   0  0  0  0  0  0  0  0  0  0  0  0
   -1.9998   -7.6333   19.7220 C   0  0  0  0  0  0  0  0  0  0  0  0
   -1.8331   -7.4822   21.0994 C   0  0  0  0  0  0  0  0  0  0  0  0
   -2.2987   -8.6624   21.9052 C   0  0  0  0  0  0  0  0  0  0  0  0
   -1.7668   -9.9667   21.3169 C   0  0  0  0  0  0  0  0  0  0  0  0
   -1.5928   -6.6066   18.8716 C   0  0  0  0  0  0  0  0  0  0  0  0
   -1.0355   -5.4494   19.3758 C   0  0  0  0  0  0  0  0  0  0  0  0
   -0.8521   -5.2804   20.7518 C   0  0  0  0  0  0  0  0  0  0  0  0
   -1.2624   -6.3182   21.6020 C   0  0  0  0  0  0  0  0  0  0  0  0
   -0.2430   -4.0015   21.3072 C   0  0  0  0  0  0  0  0  0  0  0  0
   -0.6274   -3.5052   22.5486 C   0  0  0  0  0  0  0  0  0  0  0  0
   -0.0624   -2.3530   23.0633 C   0  0  0  0  0  0  0  0  0  0  0  0
    0.8866   -1.6423   22.3429 C   0  0  0  0  0  0  0  0  0  0  0  0
    1.2778   -2.1441   21.1038 C   0  0  0  0  0  0  0  0  0  0  0  0
    0.7128   -3.2971   20.5898 C   0  0  0  0  0  0  0  0  0  0  0  0
    1.5189   -0.3882   22.9079 C   0  0  0  0  0  0  0  0  0  0  0  0
    2.9896   -0.3941   22.9572 N   0  0  0  0  0  0  0  0  0  0  0  0
    3.4907    0.8664   23.5268 C   0  0  0  0  0  0  0  0  0  0  0  0
    5.0039    0.9257   23.5921 C   0  0  0  0  0  0  0  0  0  0  0  0
    5.5634   -0.2503   24.3676 C   0  0  0  0  0  0  0  0  0  0  0  0
    5.0170   -1.5523   23.8238 C   0  0  0  0  0  0  0  0  0  0  0  0
    3.5006   -1.5214   23.7478 C   0  0  0  0  0  0  0  0  0  0  0  0
   -1.9976   -8.5426   23.3198 N   0  0  0  0  0  0  0  0  0  0  0  0
   -2.5691   -7.9465   23.8559 H   0  0  0  0  0  0  0  0  0  0  0  0
   -0.9644   -9.2040   23.9789 C   0  0  0  0  0  0  0  0  0  0  0  0
    0.3150   -8.6615   23.9601 C   0  0  0  0  0  0  0  0  0  0  0  0
    1.3573   -9.3182   24.5937 C   0  0  0  0  0  0  0  0  0  0  0  0
    1.1339  -10.5112   25.2486 C   0  0  0  0  0  0  0  0  0  0  0  0
   -0.1312  -11.0549   25.2643 C   0  0  0  0  0  0  0  0  0  0  0  0
   -1.1805  -10.4068   24.6398 C   0  0  0  0  0  0  0  0  0  0  0  0
  1  2  2  0  0  0
  2  3  1  0  0  0
  2  4  1  0  0  0
  4  5  1  0  0  0
  4  7  1  0  0  0
  5  6  1  0  0  0
  5 10  1  0  0  0
  7  8  1  0  0  0
  7 11  2  0  0  0
  8  9  1  0  0  0
  8 14  2  0  0  0
  9 28  1  0  0  0
  9 10  1  0  0  0
 28 30  1  0  0  0
 30 31  1  0  0  0
 30 35  2  0  0  0
 31 32  2  0  0  0
 32 33  1  0  0  0
 33 34  2  0  0  0
 34 35  1  0  0  0
 11 12  1  0  0  0
 12 13  2  0  0  0
 13 14  1  0  0  0
 13 15  1  0  0  0
 15 16  1  0  0  0
 15 20  2  0  0  0
 16 17  2  0  0  0
 17 18  1  0  0  0
 18 19  2  0  0  0
 18 21  1  0  0  0
 19 20  1  0  0  0
 21 22  1  0  0  0
 22 23  1  0  0  0
 22 27  1  0  0  0
 23 24  1  0  0  0
 24 25  1  0  0  0
 25 26  1  0  0  0
 26 27  1  0  0  0
 28 29  1  0  0  0
M  END
> <minimizedAffinity>
-8.39876

$$$$
5ACY_9S3_A_1172


 35 39  0  0  0  0  0  0  0  0999 V2000
    5.0238    2.0407   23.8704 O   0  0  0  0  0  0  0  0  0  0  0  0
    4.5074    0.9829   23.5114 C   0  0  0  0  0  0  0  0  0  0  0  0
    5.1528   -0.3435   23.8099 C   0  0  0  0  0  0  0  0  0  0  0  0
    3.2900    1.0155   22.8277 N   0  0  0  0  0  0  0  0  0  0  0  0
    2.7121    2.3651   22.5745 C   0  0  0  0  0  0  0  0  0  0  0  0
    3.2445    2.9498   21.2741 C   0  0  0  0  0  0  0  0  0  0  0  0
    2.5797   -0.1292   22.3532 C   0  0  0  0  0  0  0  0  0  0  0  0
    1.1990   -0.1736   22.5525 C   0  0  0  0  0  0  0  0  0  0  0  0
    0.6426    1.0348   23.2519 C   0  0  0  0  0  0  0  0  0  0  0  0
    1.1761    2.3201   22.6246 C   0  0  0  0  0  0  0  0  0  0  0  0
    3.2069   -1.1909   21.7034 C   0  0  0  0  0  0  0  0  0  0  0  0
    2.4815   -2.2789   21.2632 C   0  0  0  0  0  0  0  0  0  0  0  0
    1.0963   -2.3404   21.4455 C   0  0  0  0  0  0  0  0  0  0  0  0
    0.4711   -1.2679   22.0989 C   0  0  0  0  0  0  0  0  0  0  0  0
    0.2981   -3.5434   20.9652 C   0  0  0  0  0  0  0  0  0  0  0  0
   -0.2843   -4.4245   21.8705 C   0  0  0  0  0  0  0  0  0  0  0  0
   -1.0251   -5.5084   21.4365 C   0  0  0  0  0  0  0  0  0  0  0  0
   -1.1864   -5.7642   20.0825 C   0  0  0  0  0  0  0  0  0  0  0  0
   -0.6104   -4.8770   19.1763 C   0  0  0  0  0  0  0  0  0  0  0  0
    0.1298   -3.7926   19.6109 C   0  0  0  0  0  0  0  0  0  0  0  0
   -2.0084   -6.9411   19.6020 C   0  0  0  0  0  0  0  0  0  0  0  0
   -1.3335   -8.2471   19.6687 N   0  0  0  0  0  0  0  0  0  0  0  0
   -2.1723   -9.2244   20.3799 C   0  0  0  0  0  0  0  0  0  0  0  0
   -1.5237  -10.5897   20.4924 C   0  0  0  0  0  0  0  0  0  0  0  0
   -1.1466  -11.1292   19.1271 C   0  0  0  0  0  0  0  0  0  0  0  0
   -0.3245  -10.1134   18.3642 C   0  0  0  0  0  0  0  0  0  0  0  0
   -1.0165   -8.7621   18.3303 C   0  0  0  0  0  0  0  0  0  0  0  0
   -0.8064    1.0311   23.3325 N   0  0  0  0  0  0  0  0  0  0  0  0
   -1.3076    1.0667   22.4859 H   0  0  0  0  0  0  0  0  0  0  0  0
   -1.5440    0.9811   24.5128 C   0  0  0  0  0  0  0  0  0  0  0  0
   -1.1946    0.0651   25.4979 C   0  0  0  0  0  0  0  0  0  0  0  0
   -1.9314   -0.0107   26.6686 C   0  0  0  0  0  0  0  0  0  0  0  0
   -3.0131    0.8216   26.8666 C   0  0  0  0  0  0  0  0  0  0  0  0
   -3.3660    1.7263   25.8902 C   0  0  0  0  0  0  0  0  0  0  0  0
   -2.6359    1.8149   24.7197 C   0  0  0  0  0  0  0  0  0  0  0  0
  1  2  2  0  0  0
  2  3  1  0  0  0
  2  4  1  0  0  0
  4  5  1  0  0  0
  4  7  1  0  0  0
  5  6  1  0  0  0
  5 10  1  0  0  0
  7  8  1  0  0  0
  7 11  2  0  0  0
  8  9  1  0  0  0
  8 14  2  0  0  0
  9 28  1  0  0  0
  9 10  1  0  0  0
 28 30  1  0  0  0
 30 31  1  0  0  0
 30 35  2  0  0  0
 31 32  2  0  0  0
 32 33  1  0  0  0
 33 34  2  0  0  0
 34 35  1  0  0  0
 11 12  1  0  0  0
 12 13  2  0  0  0
 13 14  1  0  0  0
 13 15  1  0  0  0
 15 16  1  0  0  0
 15 20  2  0  0  0
 16 17  2  0  0  0
 17 18  1  0  0  0
 18 19  2  0  0  0
 18 21  1  0  0  0
 19 20  1  0  0  0
 21 22  1  0  0  0
 22 23  1  0  0  0
 22 27  1  0  0  0
 23 24  1  0  0  0
 24 25  1  0  0  0
 25 26  1  0  0  0
 26 27  1  0  0  0
 28 29  1  0  0  0
M  END
> <minimizedAffinity>
-8.27401

$$$$
5ACY_9S3_A_1172


 35 39  0  0  0  0  0  0  0  0999 V2000
    0.8991  -11.9859   23.1862 O   0  0  0  0  0  0  0  0  0  0  0  0
    1.1353  -10.7812   23.2718 C   0  0  0  0  0  0  0  0  0  0  0  0
    2.5399  -10.2702   23.4482 C   0  0  0  0  0  0  0  0  0  0  0  0
    0.0794   -9.8711   23.1873 N   0  0  0  0  0  0  0  0  0  0  0  0
   -1.2800  -10.4535   23.0079 C   0  0  0  0  0  0  0  0  0  0  0  0
   -1.9144  -10.7788   24.3525 C   0  0  0  0  0  0  0  0  0  0  0  0
    0.2060   -8.4508   23.2704 C   0  0  0  0  0  0  0  0  0  0  0  0
   -0.5126   -7.6737   22.3607 C   0  0  0  0  0  0  0  0  0  0  0  0
   -1.3499   -8.4721   21.4013 C   0  0  0  0  0  0  0  0  0  0  0  0
   -2.1573   -9.5367   22.1397 C   0  0  0  0  0  0  0  0  0  0  0  0
    1.0099   -7.8188   24.2177 C   0  0  0  0  0  0  0  0  0  0  0  0
    1.1046   -6.4430   24.2606 C   0  0  0  0  0  0  0  0  0  0  0  0
    0.3872   -5.6450   23.3637 C   0  0  0  0  0  0  0  0  0  0  0  0
   -0.4211   -6.2874   22.4139 C   0  0  0  0  0  0  0  0  0  0  0  0
    0.4970   -4.1281   23.4079 C   0  0  0  0  0  0  0  0  0  0  0  0
    0.7885   -3.4653   24.5956 C   0  0  0  0  0  0  0  0  0  0  0  0
    0.9063   -2.0882   24.6348 C   0  0  0  0  0  0  0  0  0  0  0  0
    0.7100   -1.3242   23.4934 C   0  0  0  0  0  0  0  0  0  0  0  0
    0.4268   -1.9887   22.3025 C   0  0  0  0  0  0  0  0  0  0  0  0
    0.3098   -3.3662   22.2638 C   0  0  0  0  0  0  0  0  0  0  0  0
    0.8521    0.1825   23.5276 C   0  0  0  0  0  0  0  0  0  0  0  0
   -0.4092    0.9343   23.4305 N   0  0  0  0  0  0  0  0  0  0  0  0
   -1.4530    0.2965   24.2480 C   0  0  0  0  0  0  0  0  0  0  0  0
   -2.7832    1.0199   24.1787 C   0  0  0  0  0  0  0  0  0  0  0  0
   -2.6343    2.4755   24.5745 C   0  0  0  0  0  0  0  0  0  0  0  0
   -1.5294    3.1318   23.7757 C   0  0  0  0  0  0  0  0  0  0  0  0
   -0.2427    2.3295   23.8578 C   0  0  0  0  0  0  0  0  0  0  0  0
   -2.1886   -7.6469   20.5520 N   0  0  0  0  0  0  0  0  0  0  0  0
   -2.3387   -6.7149   20.8313 H   0  0  0  0  0  0  0  0  0  0  0  0
   -2.7980   -8.0690   19.3730 C   0  0  0  0  0  0  0  0  0  0  0  0
   -2.1230   -8.9449   18.5312 C   0  0  0  0  0  0  0  0  0  0  0  0
   -2.7075   -9.3575   17.3450 C   0  0  0  0  0  0  0  0  0  0  0  0
   -3.9619   -8.9058   16.9919 C   0  0  0  0  0  0  0  0  0  0  0  0
   -4.6314   -8.0331   17.8206 C   0  0  0  0  0  0  0  0  0  0  0  0
   -4.0607   -7.6178   19.0092 C   0  0  0  0  0  0  0  0  0  0  0  0
  1  2  2  0  0  0
  2  3  1  0  0  0
  2  4  1  0  0  0
  4  5  1  0  0  0
  4  7  1  0  0  0
  5  6  1  0  0  0
  5 10  1  0  0  0
  7  8  1  0  0  0
  7 11  2  0  0  0
  8  9  1  0  0  0
  8 14  2  0  0  0
  9 28  1  0  0  0
  9 10  1  0  0  0
 28 30  1  0  0  0
 30 31  1  0  0  0
 30 35  2  0  0  0
 31 32  2  0  0  0
 32 33  1  0  0  0
 33 34  2  0  0  0
 34 35  1  0  0  0
 11 12  1  0  0  0
 12 13  2  0  0  0
 13 14  1  0  0  0
 13 15  1  0  0  0
 15 16  1  0  0  0
 15 20  2  0  0  0
 16 17  2  0  0  0
 17 18  1  0  0  0
 18 19  2  0  0  0
 18 21  1  0  0  0
 19 20  1  0  0  0
 21 22  1  0  0  0
 22 23  1  0  0  0
 22 27  1  0  0  0
 23 24  1  0  0  0
 24 25  1  0  0  0
 25 26  1  0  0  0
 26 27  1  0  0  0
 28 29  1  0  0  0
M  END
> <minimizedAffinity>
-8.07218

$$$$
5ACY_9S3_A_1172


 35 39  0  0  0  0  0  0  0  0999 V2000
    1.4334  -12.4907   22.1560 O   0  0  0  0  0  0  0  0  0  0  0  0
    1.5545  -11.2845   22.3682 C   0  0  0  0  0  0  0  0  0  0  0  0
    2.9110  -10.6401   22.4672 C   0  0  0  0  0  0  0  0  0  0  0  0
    0.4090  -10.4970   22.5033 N   0  0  0  0  0  0  0  0  0  0  0  0
   -0.8959  -11.2064   22.3879 C   0  0  0  0  0  0  0  0  0  0  0  0
   -1.3394  -11.7528   23.7373 C   0  0  0  0  0  0  0  0  0  0  0  0
    0.3997   -9.0904   22.7508 C   0  0  0  0  0  0  0  0  0  0  0  0
   -0.4913   -8.3018   22.0213 C   0  0  0  0  0  0  0  0  0  0  0  0
   -1.3456   -9.0760   21.0571 C   0  0  0  0  0  0  0  0  0  0  0  0
   -1.9532  -10.3027   21.7325 C   0  0  0  0  0  0  0  0  0  0  0  0
    1.2365   -8.4828   23.6855 C   0  0  0  0  0  0  0  0  0  0  0  0
    1.1955   -7.1190   23.8908 C   0  0  0  0  0  0  0  0  0  0  0  0
    0.3051   -6.3112   23.1765 C   0  0  0  0  0  0  0  0  0  0  0  0
   -0.5354   -6.9292   22.2384 C   0  0  0  0  0  0  0  0  0  0  0  0
    0.2649   -4.8066   23.3993 C   0  0  0  0  0  0  0  0  0  0  0  0
   -0.5374   -3.9870   22.6121 C   0  0  0  0  0  0  0  0  0  0  0  0
   -0.5892   -2.6217   22.8242 C   0  0  0  0  0  0  0  0  0  0  0  0
    0.1799   -2.0252   23.8128 C   0  0  0  0  0  0  0  0  0  0  0  0
    0.9765   -2.8470   24.6066 C   0  0  0  0  0  0  0  0  0  0  0  0
    1.0274   -4.2127   24.3945 C   0  0  0  0  0  0  0  0  0  0  0  0
    0.1160   -0.5328   24.0587 C   0  0  0  0  0  0  0  0  0  0  0  0
    0.8005    0.2985   23.0558 N   0  0  0  0  0  0  0  0  0  0  0  0
    0.2234    1.6516   23.0282 C   0  0  0  0  0  0  0  0  0  0  0  0
    0.8804    2.5540   22.0026 C   0  0  0  0  0  0  0  0  0  0  0  0
    2.3773    2.6351   22.2260 C   0  0  0  0  0  0  0  0  0  0  0  0
    2.9773    1.2484   22.3063 C   0  0  0  0  0  0  0  0  0  0  0  0
    2.2420    0.3907   23.3210 C   0  0  0  0  0  0  0  0  0  0  0  0
   -2.3534   -8.2605   20.4051 N   0  0  0  0  0  0  0  0  0  0  0  0
   -2.6596   -7.4535   20.8787 H   0  0  0  0  0  0  0  0  0  0  0  0
   -2.9219   -8.5290   19.1624 C   0  0  0  0  0  0  0  0  0  0  0  0
   -3.9933   -7.7614   18.7215 C   0  0  0  0  0  0  0  0  0  0  0  0
   -4.5827   -8.0297   17.4969 C   0  0  0  0  0  0  0  0  0  0  0  0
   -4.1105   -9.0563   16.7062 C   0  0  0  0  0  0  0  0  0  0  0  0
   -3.0530   -9.8230   17.1423 C   0  0  0  0  0  0  0  0  0  0  0  0
   -2.4534   -9.5621   18.3603 C   0  0  0  0  0  0  0  0  0  0  0  0
  1  2  2  0  0  0
  2  3  1  0  0  0
  2  4  1  0  0  0
  4  5  1  0  0  0
  4  7  1  0  0  0
  5  6  1  0  0  0
  5 10  1  0  0  0
  7  8  1  0  0  0
  7 11  2  0  0  0
  8  9  1  0  0  0
  8 14  2  0  0  0
  9 28  1  0  0  0
  9 10  1  0  0  0
 28 30  1  0  0  0
 30 31  1  0  0  0
 30 35  2  0  0  0
 31 32  2  0  0  0
 32 33  1  0  0  0
 33 34  2  0  0  0
 34 35  1  0  0  0
 11 12  1  0  0  0
 12 13  2  0  0  0
 13 14  1  0  0  0
 13 15  1  0  0  0
 15 16  1  0  0  0
 15 20  2  0  0  0
 16 17  2  0  0  0
 17 18  1  0  0  0
 18 19  2  0  0  0
 18 21  1  0  0  0
 19 20  1  0  0  0
 21 22  1  0  0  0
 22 23  1  0  0  0
 22 27  1  0  0  0
 23 24  1  0  0  0
 24 25  1  0  0  0
 25 26  1  0  0  0
 26 27  1  0  0  0
 28 29  1  0  0  0
M  END
> <minimizedAffinity>
-8.02658

$$$$
5ACY_9S3_A_1172


 35 39  0  0  0  0  0  0  0  0999 V2000
    2.3987  -14.2615   24.0984 O   0  0  0  0  0  0  0  0  0  0  0  0
    2.3339  -13.0398   23.9646 C   0  0  0  0  0  0  0  0  0  0  0  0
    3.5763  -12.1925   23.9058 C   0  0  0  0  0  0  0  0  0  0  0  0
    1.0821  -12.4316   23.8488 N   0  0  0  0  0  0  0  0  0  0  0  0
   -0.0992  -13.3372   23.9113 C   0  0  0  0  0  0  0  0  0  0  0  0
   -0.5445  -13.5522   25.3505 C   0  0  0  0  0  0  0  0  0  0  0  0
    0.8578  -11.0300   23.6898 C   0  0  0  0  0  0  0  0  0  0  0  0
   -0.0886  -10.6196   22.7495 C   0  0  0  0  0  0  0  0  0  0  0  0
   -0.7621  -11.7513   22.0252 C   0  0  0  0  0  0  0  0  0  0  0  0
   -1.2307  -12.8228   23.0063 C   0  0  0  0  0  0  0  0  0  0  0  0
    1.5395  -10.0673   24.4323 C   0  0  0  0  0  0  0  0  0  0  0  0
    1.2926   -8.7229   24.2442 C   0  0  0  0  0  0  0  0  0  0  0  0
    0.3433   -8.2900   23.3131 C   0  0  0  0  0  0  0  0  0  0  0  0
   -0.3404   -9.2641   22.5702 C   0  0  0  0  0  0  0  0  0  0  0  0
    0.0761   -6.8071   23.1021 C   0  0  0  0  0  0  0  0  0  0  0  0
   -0.8186   -6.3715   22.1300 C   0  0  0  0  0  0  0  0  0  0  0  0
   -1.0764   -5.0253   21.9483 C   0  0  0  0  0  0  0  0  0  0  0  0
   -0.4284   -4.0668   22.7138 C   0  0  0  0  0  0  0  0  0  0  0  0
    0.4607   -4.5034   23.6930 C   0  0  0  0  0  0  0  0  0  0  0  0
    0.7178   -5.8501   23.8748 C   0  0  0  0  0  0  0  0  0  0  0  0
   -0.7178   -2.5924   22.5288 C   0  0  0  0  0  0  0  0  0  0  0  0
    0.1830   -1.8872   21.6032 N   0  0  0  0  0  0  0  0  0  0  0  0
    1.2915   -1.2610   22.3405 C   0  0  0  0  0  0  0  0  0  0  0  0
    2.2493   -0.5065   21.4400 C   0  0  0  0  0  0  0  0  0  0  0  0
    2.7968   -1.4060   20.3498 C   0  0  0  0  0  0  0  0  0  0  0  0
    1.6682   -2.0956   19.6149 C   0  0  0  0  0  0  0  0  0  0  0  0
    0.7282   -2.7921   20.5831 C   0  0  0  0  0  0  0  0  0  0  0  0
   -1.8325  -11.3120   21.1493 N   0  0  0  0  0  0  0  0  0  0  0  0
   -2.7479  -11.5958   21.3747 H   0  0  0  0  0  0  0  0  0  0  0  0
   -1.6674  -10.5206   20.0153 C   0  0  0  0  0  0  0  0  0  0  0  0
   -2.6096   -9.5418   19.7228 C   0  0  0  0  0  0  0  0  0  0  0  0
   -2.4701   -8.7606   18.5873 C   0  0  0  0  0  0  0  0  0  0  0  0
   -1.3966   -8.9457   17.7415 C   0  0  0  0  0  0  0  0  0  0  0  0
   -0.4642   -9.9187   18.0247 C   0  0  0  0  0  0  0  0  0  0  0  0
   -0.5897  -10.7014   19.1573 C   0  0  0  0  0  0  0  0  0  0  0  0
  1  2  2  0  0  0
  2  3  1  0  0  0
  2  4  1  0  0  0
  4  5  1  0  0  0
  4  7  1  0  0  0
  5  6  1  0  0  0
  5 10  1  0  0  0
  7  8  1  0  0  0
  7 11  2  0  0  0
  8  9  1  0  0  0
  8 14  2  0  0  0
  9 28  1  0  0  0
  9 10  1  0  0  0
 28 30  1  0  0  0
 30 31  1  0  0  0
 30 35  2  0  0  0
 31 32  2  0  0  0
 32 33  1  0  0  0
 33 34  2  0  0  0
 34 35  1  0  0  0
 11 12  1  0  0  0
 12 13  2  0  0  0
 13 14  1  0  0  0
 13 15  1  0  0  0
 15 16  1  0  0  0
 15 20  2  0  0  0
 16 17  2  0  0  0
 17 18  1  0  0  0
 18 19  2  0  0  0
 18 21  1  0  0  0
 19 20  1  0  0  0
 21 22  1  0  0  0
 22 23  1  0  0  0
 22 27  1  0  0  0
 23 24  1  0  0  0
 24 25  1  0  0  0
 25 26  1  0  0  0
 26 27  1  0  0  0
 28 29  1  0  0  0
M  END
> <minimizedAffinity>
-8.00851

$$$$
