3N1C_F6P_A_400


 22 22  0  0  0  0  0  0  0  0999 V2000
   39.5927  -24.6876   41.0438 C   0  0  0  0  0  0  0  0  0  0  0  0
   40.6924  -24.0929   41.7692 O   0  0  0  0  0  0  0  0  0  0  0  0
   38.1783  -24.1402   41.2845 C   0  0  0  0  0  0  0  0  0  0  0  0
   37.4306  -24.7223   42.3086 O   0  0  0  0  0  0  0  0  0  0  0  0
   38.0649  -22.7125   40.8953 C   0  0  0  0  0  0  0  0  0  0  0  0
   36.8966  -21.9384   40.9452 O   0  0  0  0  0  0  0  0  0  0  0  0
   39.2199  -22.4592   39.9577 C   0  0  0  0  0  0  0  0  0  0  0  0
   39.9406  -23.7406   39.9321 O   0  0  0  0  0  0  0  0  0  0  0  0
   40.7708  -24.5137   42.6396 H   0  0  0  0  0  0  0  0  0  0  0  0
   37.8332  -24.5082   43.1647 H   0  0  0  0  0  0  0  0  0  0  0  0
   36.3384  -22.1458   40.1795 H   0  0  0  0  0  0  0  0  0  0  0  0
   38.6382  -26.5605   39.8806 O   0  0  0  0  0  0  0  0  0  0  0  0
   39.8086  -25.8095   39.9800 C   0  0  0  0  0  0  0  0  0  0  0  0
   38.7592  -27.2621   39.2218 H   0  0  0  0  0  0  0  0  0  0  0  0
   40.1209  -21.3067   40.4311 C   0  0  0  0  0  0  0  0  0  0  0  0
   39.5677  -20.7847   41.6131 O   0  0  0  0  0  0  0  0  0  0  0  0
   39.1619  -19.1880   41.7654 P   0  0  0  0  0  0  0  0  0  0  0  0
   39.5564  -18.6173   43.2644 O   0  0  0  0  0  0  0  0  0  0  0  0
   37.5462  -18.9716   41.5483 O   0  0  0  0  0  0  0  0  0  0  0  0
   39.9112  -18.4196   40.7791 O   0  0  0  0  0  0  0  0  0  0  0  0
   37.0591  -19.4874   42.2098 H   0  0  0  0  0  0  0  0  0  0  0  0
   40.8616  -18.5554   40.9175 H   0  0  0  0  0  0  0  0  0  0  0  0
 12 13  1  0  0  0
 13  1  1  0  0  0
  1  2  1  0  0  0
  1  3  1  0  0  0
  1  8  1  0  0  0
  3  4  1  0  0  0
  3  5  1  0  0  0
  5  6  1  0  0  0
  5  7  1  0  0  0
  7  8  1  0  0  0
  7 15  1  0  0  0
 15 16  1  0  0  0
 16 17  1  0  0  0
 17 18  2  0  0  0
 17 19  1  0  0  0
 17 20  1  0  0  0
 12 14  1  0  0  0
  2  9  1  0  0  0
  4 10  1  0  0  0
  6 11  1  0  0  0
 19 21  1  0  0  0
 20 22  1  0  0  0
M  END
> <minimizedAffinity>
-7.91414

$$$$
3N1C_F6P_A_400


 22 22  0  0  0  0  0  0  0  0999 V2000
   39.1894  -25.5036   40.0865 C   0  0  0  0  0  0  0  0  0  0  0  0
   40.2329  -26.3279   39.5201 O   0  0  0  0  0  0  0  0  0  0  0  0
   39.5576  -24.5374   41.2218 C   0  0  0  0  0  0  0  0  0  0  0  0
   39.4764  -25.0213   42.5279 O   0  0  0  0  0  0  0  0  0  0  0  0
   40.5462  -23.5209   40.7833 C   0  0  0  0  0  0  0  0  0  0  0  0
   41.0458  -22.4704   41.5665 O   0  0  0  0  0  0  0  0  0  0  0  0
   40.4568  -23.4977   39.2771 C   0  0  0  0  0  0  0  0  0  0  0  0
   39.4723  -24.5449   38.9663 O   0  0  0  0  0  0  0  0  0  0  0  0
   40.3362  -27.1310   40.0541 H   0  0  0  0  0  0  0  0  0  0  0  0
   40.1584  -25.6973   42.6653 H   0  0  0  0  0  0  0  0  0  0  0  0
   40.3920  -21.7547   41.6027 H   0  0  0  0  0  0  0  0  0  0  0  0
   36.8812  -26.0048   40.5259 O   0  0  0  0  0  0  0  0  0  0  0  0
   37.7295  -25.5146   39.5340 C   0  0  0  0  0  0  0  0  0  0  0  0
   35.9696  -26.0168   40.1948 H   0  0  0  0  0  0  0  0  0  0  0  0
   41.8115  -23.7693   38.6024 C   0  0  0  0  0  0  0  0  0  0  0  0
   41.6520  -24.8703   37.7431 O   0  0  0  0  0  0  0  0  0  0  0  0
   42.8483  -25.3633   36.7121 P   0  0  0  0  0  0  0  0  0  0  0  0
   42.2226  -25.8111   35.2504 O   0  0  0  0  0  0  0  0  0  0  0  0
   43.6617  -26.6507   37.3326 O   0  0  0  0  0  0  0  0  0  0  0  0
   43.7612  -24.2491   36.4891 O   0  0  0  0  0  0  0  0  0  0  0  0
   43.0441  -27.3847   37.4764 H   0  0  0  0  0  0  0  0  0  0  0  0
   43.2700  -23.4968   36.1235 H   0  0  0  0  0  0  0  0  0  0  0  0
 12 13  1  0  0  0
 13  1  1  0  0  0
  1  2  1  0  0  0
  1  3  1  0  0  0
  1  8  1  0  0  0
  3  4  1  0  0  0
  3  5  1  0  0  0
  5  6  1  0  0  0
  5  7  1  0  0  0
  7  8  1  0  0  0
  7 15  1  0  0  0
 15 16  1  0  0  0
 16 17  1  0  0  0
 17 18  2  0  0  0
 17 19  1  0  0  0
 17 20  1  0  0  0
 12 14  1  0  0  0
  2  9  1  0  0  0
  4 10  1  0  0  0
  6 11  1  0  0  0
 19 21  1  0  0  0
 20 22  1  0  0  0
M  END
> <minimizedAffinity>
-7.63260

$$$$
3N1C_F6P_A_400


 22 22  0  0  0  0  0  0  0  0999 V2000
   40.9663  -24.0021   40.7803 C   0  0  0  0  0  0  0  0  0  0  0  0
   41.7277  -23.0427   41.5479 O   0  0  0  0  0  0  0  0  0  0  0  0
   39.4699  -24.1595   41.0865 C   0  0  0  0  0  0  0  0  0  0  0  0
   39.1083  -25.0935   42.0579 O   0  0  0  0  0  0  0  0  0  0  0  0
   38.7198  -22.9034   40.8365 C   0  0  0  0  0  0  0  0  0  0  0  0
   37.3343  -22.7338   40.9719 O   0  0  0  0  0  0  0  0  0  0  0  0
   39.5955  -22.0895   39.9157 C   0  0  0  0  0  0  0  0  0  0  0  0
   40.8043  -22.9123   39.7606 O   0  0  0  0  0  0  0  0  0  0  0  0
   42.0279  -23.4542   42.3734 H   0  0  0  0  0  0  0  0  0  0  0  0
   39.4189  -24.7934   42.9264 H   0  0  0  0  0  0  0  0  0  0  0  0
   36.8858  -23.1042   40.1956 H   0  0  0  0  0  0  0  0  0  0  0  0
   42.4557  -23.9876   38.8953 O   0  0  0  0  0  0  0  0  0  0  0  0
   41.5990  -24.8218   39.6122 C   0  0  0  0  0  0  0  0  0  0  0  0
   42.8560  -24.4855   38.1654 H   0  0  0  0  0  0  0  0  0  0  0  0
   39.9203  -20.6998   40.4877 C   0  0  0  0  0  0  0  0  0  0  0  0
   39.6714  -20.7341   41.8707 O   0  0  0  0  0  0  0  0  0  0  0  0
   38.8159  -19.5460   42.6413 P   0  0  0  0  0  0  0  0  0  0  0  0
   38.2664  -18.4195   41.5654 O   0  0  0  0  0  0  0  0  0  0  0  0
   39.7539  -18.7747   43.7501 O   0  0  0  0  0  0  0  0  0  0  0  0
   37.6594  -20.1500   43.2912 O   0  0  0  0  0  0  0  0  0  0  0  0
   40.5192  -18.3774   43.3058 H   0  0  0  0  0  0  0  0  0  0  0  0
   37.1146  -20.6014   42.6276 H   0  0  0  0  0  0  0  0  0  0  0  0
 12 13  1  0  0  0
 13  1  1  0  0  0
  1  2  1  0  0  0
  1  3  1  0  0  0
  1  8  1  0  0  0
  3  4  1  0  0  0
  3  5  1  0  0  0
  5  6  1  0  0  0
  5  7  1  0  0  0
  7  8  1  0  0  0
  7 15  1  0  0  0
 15 16  1  0  0  0
 16 17  1  0  0  0
 17 18  2  0  0  0
 17 19  1  0  0  0
 17 20  1  0  0  0
 12 14  1  0  0  0
  2  9  1  0  0  0
  4 10  1  0  0  0
  6 11  1  0  0  0
 19 21  1  0  0  0
 20 22  1  0  0  0
M  END
> <minimizedAffinity>
-7.60223

$$$$
3N1C_F6P_A_400


 22 22  0  0  0  0  0  0  0  0999 V2000
   38.5449  -19.8286   40.4370 C   0  0  0  0  0  0  0  0  0  0  0  0
   38.4176  -20.4896   39.1578 O   0  0  0  0  0  0  0  0  0  0  0  0
   37.5495  -20.1914   41.5485 C   0  0  0  0  0  0  0  0  0  0  0  0
   36.3675  -19.4532   41.6174 O   0  0  0  0  0  0  0  0  0  0  0  0
   37.6472  -21.6218   41.9323 C   0  0  0  0  0  0  0  0  0  0  0  0
   36.9120  -22.2515   42.9470 O   0  0  0  0  0  0  0  0  0  0  0  0
   39.0043  -22.0744   41.4520 C   0  0  0  0  0  0  0  0  0  0  0  0
   39.5521  -20.8892   40.7757 O   0  0  0  0  0  0  0  0  0  0  0  0
   37.7692  -20.0171   38.6128 H   0  0  0  0  0  0  0  0  0  0  0  0
   35.8191  -19.6478   40.8413 H   0  0  0  0  0  0  0  0  0  0  0  0
   37.3030  -22.0391   43.8089 H   0  0  0  0  0  0  0  0  0  0  0  0
   39.6004  -18.4208   42.0728 O   0  0  0  0  0  0  0  0  0  0  0  0
   39.6978  -18.8210   40.7408 C   0  0  0  0  0  0  0  0  0  0  0  0
   40.3122  -17.7936   42.2748 H   0  0  0  0  0  0  0  0  0  0  0  0
   38.9211  -23.2839   40.5063 C   0  0  0  0  0  0  0  0  0  0  0  0
   37.5778  -23.4398   40.1231 O   0  0  0  0  0  0  0  0  0  0  0  0
   36.7279  -24.8245   40.4354 P   0  0  0  0  0  0  0  0  0  0  0  0
   35.2151  -24.7519   39.7761 O   0  0  0  0  0  0  0  0  0  0  0  0
   36.5657  -25.0589   42.0549 O   0  0  0  0  0  0  0  0  0  0  0  0
   37.4296  -25.9497   39.8302 O   0  0  0  0  0  0  0  0  0  0  0  0
   36.0978  -24.3044   42.4456 H   0  0  0  0  0  0  0  0  0  0  0  0
   37.5188  -25.7997   38.8760 H   0  0  0  0  0  0  0  0  0  0  0  0
 12 13  1  0  0  0
 13  1  1  0  0  0
  1  2  1  0  0  0
  1  3  1  0  0  0
  1  8  1  0  0  0
  3  4  1  0  0  0
  3  5  1  0  0  0
  5  6  1  0  0  0
  5  7  1  0  0  0
  7  8  1  0  0  0
  7 15  1  0  0  0
 15 16  1  0  0  0
 16 17  1  0  0  0
 17 18  2  0  0  0
 17 19  1  0  0  0
 17 20  1  0  0  0
 12 14  1  0  0  0
  2  9  1  0  0  0
  4 10  1  0  0  0
  6 11  1  0  0  0
 19 21  1  0  0  0
 20 22  1  0  0  0
M  END
> <minimizedAffinity>
-7.51343

$$$$
3N1C_F6P_A_400


 22 22  0  0  0  0  0  0  0  0999 V2000
   38.5375  -24.6245   40.6094 C   0  0  0  0  0  0  0  0  0  0  0  0
   39.4737  -25.5706   41.1730 O   0  0  0  0  0  0  0  0  0  0  0  0
   38.7439  -23.1311   40.9011 C   0  0  0  0  0  0  0  0  0  0  0  0
   38.1309  -22.6091   42.0406 O   0  0  0  0  0  0  0  0  0  0  0  0
   40.0373  -22.6373   40.3660 C   0  0  0  0  0  0  0  0  0  0  0  0
   40.4979  -21.3141   40.4236 O   0  0  0  0  0  0  0  0  0  0  0  0
   40.4465  -23.6409   39.3159 C   0  0  0  0  0  0  0  0  0  0  0  0
   39.3909  -24.6629   39.3748 O   0  0  0  0  0  0  0  0  0  0  0  0
   39.2004  -25.7974   42.0757 H   0  0  0  0  0  0  0  0  0  0  0  0
   38.5457  -22.9859   42.8323 H   0  0  0  0  0  0  0  0  0  0  0  0
   40.0626  -20.7898   39.7333 H   0  0  0  0  0  0  0  0  0  0  0  0
   37.7997  -26.1725   38.9268 O   0  0  0  0  0  0  0  0  0  0  0  0
   37.3774  -25.0664   39.6630 C   0  0  0  0  0  0  0  0  0  0  0  0
   37.0869  -26.4575   38.3338 H   0  0  0  0  0  0  0  0  0  0  0  0
   41.8369  -24.2401   39.5839 C   0  0  0  0  0  0  0  0  0  0  0  0
   42.3082  -24.7911   38.3798 O   0  0  0  0  0  0  0  0  0  0  0  0
   42.0834  -26.3839   37.9926 P   0  0  0  0  0  0  0  0  0  0  0  0
   42.0937  -26.6022   36.3553 O   0  0  0  0  0  0  0  0  0  0  0  0
   40.6427  -26.9285   38.5689 O   0  0  0  0  0  0  0  0  0  0  0  0
   43.1795  -27.1610   38.5577 O   0  0  0  0  0  0  0  0  0  0  0  0
   39.9222  -26.4040   38.1860 H   0  0  0  0  0  0  0  0  0  0  0  0
   44.0228  -26.8305   38.2105 H   0  0  0  0  0  0  0  0  0  0  0  0
 12 13  1  0  0  0
 13  1  1  0  0  0
  1  2  1  0  0  0
  1  3  1  0  0  0
  1  8  1  0  0  0
  3  4  1  0  0  0
  3  5  1  0  0  0
  5  6  1  0  0  0
  5  7  1  0  0  0
  7  8  1  0  0  0
  7 15  1  0  0  0
 15 16  1  0  0  0
 16 17  1  0  0  0
 17 18  2  0  0  0
 17 19  1  0  0  0
 17 20  1  0  0  0
 12 14  1  0  0  0
  2  9  1  0  0  0
  4 10  1  0  0  0
  6 11  1  0  0  0
 19 21  1  0  0  0
 20 22  1  0  0  0
M  END
> <minimizedAffinity>
-7.47965

$$$$
3N1C_F6P_A_400


 22 22  0  0  0  0  0  0  0  0999 V2000
   38.9224  -22.2102   40.2510 C   0  0  0  0  0  0  0  0  0  0  0  0
   39.0478  -21.7828   38.8759 O   0  0  0  0  0  0  0  0  0  0  0  0
   38.6562  -23.6961   40.5323 C   0  0  0  0  0  0  0  0  0  0  0  0
   37.3249  -24.1094   40.5921 O   0  0  0  0  0  0  0  0  0  0  0  0
   39.7617  -24.5576   40.0438 C   0  0  0  0  0  0  0  0  0  0  0  0
   39.8444  -25.9496   40.1918 O   0  0  0  0  0  0  0  0  0  0  0  0
   40.9511  -23.6403   39.8986 C   0  0  0  0  0  0  0  0  0  0  0  0
   40.4200  -22.3157   40.2533 O   0  0  0  0  0  0  0  0  0  0  0  0
   38.1668  -21.6054   38.5109 H   0  0  0  0  0  0  0  0  0  0  0  0
   36.9246  -24.0388   39.7114 H   0  0  0  0  0  0  0  0  0  0  0  0
   40.1356  -26.1623   41.0923 H   0  0  0  0  0  0  0  0  0  0  0  0
   38.0868  -21.4261   42.3626 O   0  0  0  0  0  0  0  0  0  0  0  0
   39.1203  -21.2280   41.4480 C   0  0  0  0  0  0  0  0  0  0  0  0
   38.1982  -20.8209   43.1125 H   0  0  0  0  0  0  0  0  0  0  0  0
   41.5387  -23.6581   38.4779 C   0  0  0  0  0  0  0  0  0  0  0  0
   41.7752  -24.9983   38.1261 O   0  0  0  0  0  0  0  0  0  0  0  0
   42.7725  -25.4174   36.8743 P   0  0  0  0  0  0  0  0  0  0  0  0
   43.8378  -24.2017   36.5337 O   0  0  0  0  0  0  0  0  0  0  0  0
   41.9040  -25.7283   35.5130 O   0  0  0  0  0  0  0  0  0  0  0  0
   43.5406  -26.5938   37.2628 O   0  0  0  0  0  0  0  0  0  0  0  0
   41.3979  -24.9388   35.2650 H   0  0  0  0  0  0  0  0  0  0  0  0
   44.0479  -26.3979   38.0661 H   0  0  0  0  0  0  0  0  0  0  0  0
 12 13  1  0  0  0
 13  1  1  0  0  0
  1  2  1  0  0  0
  1  3  1  0  0  0
  1  8  1  0  0  0
  3  4  1  0  0  0
  3  5  1  0  0  0
  5  6  1  0  0  0
  5  7  1  0  0  0
  7  8  1  0  0  0
  7 15  1  0  0  0
 15 16  1  0  0  0
 16 17  1  0  0  0
 17 18  2  0  0  0
 17 19  1  0  0  0
 17 20  1  0  0  0
 12 14  1  0  0  0
  2  9  1  0  0  0
  4 10  1  0  0  0
  6 11  1  0  0  0
 19 21  1  0  0  0
 20 22  1  0  0  0
M  END
> <minimizedAffinity>
-7.47020

$$$$
3N1C_F6P_A_400


 22 22  0  0  0  0  0  0  0  0999 V2000
   38.5562  -19.7852   40.4383 C   0  0  0  0  0  0  0  0  0  0  0  0
   38.4622  -20.3706   39.1201 O   0  0  0  0  0  0  0  0  0  0  0  0
   37.5486  -20.2301   41.5083 C   0  0  0  0  0  0  0  0  0  0  0  0
   36.3529  -19.5169   41.5998 O   0  0  0  0  0  0  0  0  0  0  0  0
   37.6648  -21.6790   41.8081 C   0  0  0  0  0  0  0  0  0  0  0  0
   36.9237  -22.3802   42.7702 O   0  0  0  0  0  0  0  0  0  0  0  0
   39.0376  -22.0797   41.3261 C   0  0  0  0  0  0  0  0  0  0  0  0
   39.5759  -20.8473   40.7315 O   0  0  0  0  0  0  0  0  0  0  0  0
   37.8149  -19.8770   38.5926 H   0  0  0  0  0  0  0  0  0  0  0  0
   35.8212  -19.6737   40.8038 H   0  0  0  0  0  0  0  0  0  0  0  0
   37.2963  -22.2133   43.6501 H   0  0  0  0  0  0  0  0  0  0  0  0
   39.5296  -18.4226   42.1611 O   0  0  0  0  0  0  0  0  0  0  0  0
   39.6859  -18.7786   40.8222 C   0  0  0  0  0  0  0  0  0  0  0  0
   40.2264  -17.7964   42.4126 H   0  0  0  0  0  0  0  0  0  0  0  0
   38.9916  -23.2317   40.3089 C   0  0  0  0  0  0  0  0  0  0  0  0
   40.1142  -23.1122   39.4714 O   0  0  0  0  0  0  0  0  0  0  0  0
   41.3783  -24.1775   39.5356 P   0  0  0  0  0  0  0  0  0  0  0  0
   41.0062  -25.5853   38.7556 O   0  0  0  0  0  0  0  0  0  0  0  0
   41.7561  -24.5442   41.0935 O   0  0  0  0  0  0  0  0  0  0  0  0
   42.5266  -23.5807   38.8648 O   0  0  0  0  0  0  0  0  0  0  0  0
   40.9848  -24.9402   41.5286 H   0  0  0  0  0  0  0  0  0  0  0  0
   42.2914  -23.3692   37.9478 H   0  0  0  0  0  0  0  0  0  0  0  0
 12 13  1  0  0  0
 13  1  1  0  0  0
  1  2  1  0  0  0
  1  3  1  0  0  0
  1  8  1  0  0  0
  3  4  1  0  0  0
  3  5  1  0  0  0
  5  6  1  0  0  0
  5  7  1  0  0  0
  7  8  1  0  0  0
  7 15  1  0  0  0
 15 16  1  0  0  0
 16 17  1  0  0  0
 17 18  2  0  0  0
 17 19  1  0  0  0
 17 20  1  0  0  0
 12 14  1  0  0  0
  2  9  1  0  0  0
  4 10  1  0  0  0
  6 11  1  0  0  0
 19 21  1  0  0  0
 20 22  1  0  0  0
M  END
> <minimizedAffinity>
-7.46435

$$$$
3N1C_F6P_A_400


 22 22  0  0  0  0  0  0  0  0999 V2000
   41.8420  -24.5963   38.9200 C   0  0  0  0  0  0  0  0  0  0  0  0
   42.2682  -24.1237   40.2178 O   0  0  0  0  0  0  0  0  0  0  0  0
   41.2280  -26.0002   38.8197 C   0  0  0  0  0  0  0  0  0  0  0  0
   42.0988  -27.0668   38.5942 O   0  0  0  0  0  0  0  0  0  0  0  0
   39.9784  -26.1146   39.6124 C   0  0  0  0  0  0  0  0  0  0  0  0
   39.1550  -27.2472   39.6880 O   0  0  0  0  0  0  0  0  0  0  0  0
   39.5052  -24.6971   39.8224 C   0  0  0  0  0  0  0  0  0  0  0  0
   40.5510  -23.8792   39.1903 O   0  0  0  0  0  0  0  0  0  0  0  0
   43.1689  -24.4365   40.3960 H   0  0  0  0  0  0  0  0  0  0  0  0
   42.6629  -27.1939   39.3730 H   0  0  0  0  0  0  0  0  0  0  0  0
   38.6028  -27.2992   38.8922 H   0  0  0  0  0  0  0  0  0  0  0  0
   42.0545  -24.5281   36.5279 O   0  0  0  0  0  0  0  0  0  0  0  0
   41.9201  -23.7020   37.6430 C   0  0  0  0  0  0  0  0  0  0  0  0
   42.1042  -23.9839   35.7265 H   0  0  0  0  0  0  0  0  0  0  0  0
   39.3293  -24.3491   41.3097 C   0  0  0  0  0  0  0  0  0  0  0  0
   38.4363  -23.2671   41.3965 O   0  0  0  0  0  0  0  0  0  0  0  0
   38.9338  -21.6986   41.2243 P   0  0  0  0  0  0  0  0  0  0  0  0
   38.3033  -21.0247   39.8543 O   0  0  0  0  0  0  0  0  0  0  0  0
   40.5730  -21.6122   41.1251 O   0  0  0  0  0  0  0  0  0  0  0  0
   38.4558  -20.9290   42.3662 O   0  0  0  0  0  0  0  0  0  0  0  0
   40.8784  -22.1277   40.3623 H   0  0  0  0  0  0  0  0  0  0  0  0
   37.4887  -20.9878   42.4137 H   0  0  0  0  0  0  0  0  0  0  0  0
 12 13  1  0  0  0
 13  1  1  0  0  0
  1  2  1  0  0  0
  1  3  1  0  0  0
  1  8  1  0  0  0
  3  4  1  0  0  0
  3  5  1  0  0  0
  5  6  1  0  0  0
  5  7  1  0  0  0
  7  8  1  0  0  0
  7 15  1  0  0  0
 15 16  1  0  0  0
 16 17  1  0  0  0
 17 18  2  0  0  0
 17 19  1  0  0  0
 17 20  1  0  0  0
 12 14  1  0  0  0
  2  9  1  0  0  0
  4 10  1  0  0  0
  6 11  1  0  0  0
 19 21  1  0  0  0
 20 22  1  0  0  0
M  END
> <minimizedAffinity>
-7.45584

$$$$
3N1C_F6P_A_400


 22 22  0  0  0  0  0  0  0  0999 V2000
   39.1838  -22.5623   41.0058 C   0  0  0  0  0  0  0  0  0  0  0  0
   38.0345  -22.4359   41.8733 O   0  0  0  0  0  0  0  0  0  0  0  0
   39.9698  -23.8813   41.0228 C   0  0  0  0  0  0  0  0  0  0  0  0
   41.0181  -23.9919   41.9369 O   0  0  0  0  0  0  0  0  0  0  0  0
   39.1330  -25.0286   40.5910 C   0  0  0  0  0  0  0  0  0  0  0  0
   39.5674  -26.3546   40.4510 O   0  0  0  0  0  0  0  0  0  0  0  0
   37.9806  -24.4207   39.8297 C   0  0  0  0  0  0  0  0  0  0  0  0
   38.2113  -22.9725   39.9382 O   0  0  0  0  0  0  0  0  0  0  0  0
   38.3242  -22.1521   42.7545 H   0  0  0  0  0  0  0  0  0  0  0  0
   40.6606  -24.0068   42.8385 H   0  0  0  0  0  0  0  0  0  0  0  0
   40.0511  -26.4499   39.6157 H   0  0  0  0  0  0  0  0  0  0  0  0
   38.4577  -20.7390   39.6201 O   0  0  0  0  0  0  0  0  0  0  0  0
   39.6011  -21.4352   40.0097 C   0  0  0  0  0  0  0  0  0  0  0  0
   38.7036  -20.0347   39.0000 H   0  0  0  0  0  0  0  0  0  0  0  0
   36.6143  -24.8260   40.4069 C   0  0  0  0  0  0  0  0  0  0  0  0
   36.8105  -25.2222   41.7412 O   0  0  0  0  0  0  0  0  0  0  0  0
   35.7313  -24.8491   42.9384 P   0  0  0  0  0  0  0  0  0  0  0  0
   34.2535  -24.4689   42.3058 O   0  0  0  0  0  0  0  0  0  0  0  0
   36.2544  -23.5614   43.8174 O   0  0  0  0  0  0  0  0  0  0  0  0
   35.5668  -26.0142   43.7987 O   0  0  0  0  0  0  0  0  0  0  0  0
   36.3598  -22.7934   43.2344 H   0  0  0  0  0  0  0  0  0  0  0  0
   35.2584  -26.7661   43.2692 H   0  0  0  0  0  0  0  0  0  0  0  0
 12 13  1  0  0  0
 13  1  1  0  0  0
  1  2  1  0  0  0
  1  3  1  0  0  0
  1  8  1  0  0  0
  3  4  1  0  0  0
  3  5  1  0  0  0
  5  6  1  0  0  0
  5  7  1  0  0  0
  7  8  1  0  0  0
  7 15  1  0  0  0
 15 16  1  0  0  0
 16 17  1  0  0  0
 17 18  2  0  0  0
 17 19  1  0  0  0
 17 20  1  0  0  0
 12 14  1  0  0  0
  2  9  1  0  0  0
  4 10  1  0  0  0
  6 11  1  0  0  0
 19 21  1  0  0  0
 20 22  1  0  0  0
M  END
> <minimizedAffinity>
-7.38961

$$$$
3N1C_F6P_A_400


 22 22  0  0  0  0  0  0  0  0999 V2000
   39.7949  -24.8390   40.8742 C   0  0  0  0  0  0  0  0  0  0  0  0
   39.5215  -24.8753   42.2931 O   0  0  0  0  0  0  0  0  0  0  0  0
   38.8994  -25.6619   39.9368 C   0  0  0  0  0  0  0  0  0  0  0  0
   39.2811  -26.9785   39.6767 O   0  0  0  0  0  0  0  0  0  0  0  0
   37.4859  -25.2121   39.9874 C   0  0  0  0  0  0  0  0  0  0  0  0
   36.4331  -25.7250   39.2159 O   0  0  0  0  0  0  0  0  0  0  0  0
   37.5296  -23.8141   40.5538 C   0  0  0  0  0  0  0  0  0  0  0  0
   38.9548  -23.5952   40.8424 O   0  0  0  0  0  0  0  0  0  0  0  0
   39.9620  -25.6441   42.6877 H   0  0  0  0  0  0  0  0  0  0  0  0
   39.1940  -27.5063   40.4859 H   0  0  0  0  0  0  0  0  0  0  0  0
   36.4744  -25.3497   38.3224 H   0  0  0  0  0  0  0  0  0  0  0  0
   41.4756  -23.1730   41.2885 O   0  0  0  0  0  0  0  0  0  0  0  0
   40.9169  -23.9396   40.2667 C   0  0  0  0  0  0  0  0  0  0  0  0
   42.1753  -22.6087   40.9237 H   0  0  0  0  0  0  0  0  0  0  0  0
   36.6619  -23.6616   41.8139 C   0  0  0  0  0  0  0  0  0  0  0  0
   36.5994  -24.9144   42.4483 O   0  0  0  0  0  0  0  0  0  0  0  0
   35.1643  -25.6864   42.7339 P   0  0  0  0  0  0  0  0  0  0  0  0
   35.0750  -26.2103   44.2979 O   0  0  0  0  0  0  0  0  0  0  0  0
   34.9968  -26.9932   41.7498 O   0  0  0  0  0  0  0  0  0  0  0  0
   34.0747  -24.7440   42.5115 O   0  0  0  0  0  0  0  0  0  0  0  0
   35.7270  -27.6121   41.9071 H   0  0  0  0  0  0  0  0  0  0  0  0
   34.1847  -23.9785   43.0971 H   0  0  0  0  0  0  0  0  0  0  0  0
 12 13  1  0  0  0
 13  1  1  0  0  0
  1  2  1  0  0  0
  1  3  1  0  0  0
  1  8  1  0  0  0
  3  4  1  0  0  0
  3  5  1  0  0  0
  5  6  1  0  0  0
  5  7  1  0  0  0
  7  8  1  0  0  0
  7 15  1  0  0  0
 15 16  1  0  0  0
 16 17  1  0  0  0
 17 18  2  0  0  0
 17 19  1  0  0  0
 17 20  1  0  0  0
 12 14  1  0  0  0
  2  9  1  0  0  0
  4 10  1  0  0  0
  6 11  1  0  0  0
 19 21  1  0  0  0
 20 22  1  0  0  0
M  END
> <minimizedAffinity>
-7.36846

$$$$
