6AYI_C3G_A_201


 26 27  0  0  0  0  0  0  0  0999 V2000
   51.2549   43.7858  167.7081 C   0  0  0  0  0  0  0  0  0  0  0  0
   52.2308   42.8652  168.3037 C   0  0  0  0  0  0  0  0  0  0  0  0
   52.9938   42.0477  167.2329 C   0  0  0  0  0  0  0  0  0  0  0  0
   52.6584   43.8934  165.6314 C   0  0  0  0  0  0  0  0  0  0  0  0
   51.8988   44.6911  166.7213 C   0  0  0  0  0  0  0  0  0  0  0  0
   50.6358   44.5899  168.7757 O   0  0  0  0  0  0  0  0  0  0  0  0
   51.5406   41.9405  169.2060 O   0  0  0  0  0  0  0  0  0  0  0  0
   53.6008   42.9167  166.1967 O   0  0  0  0  0  0  0  0  0  0  0  0
   50.9129   45.4685  166.1146 O   0  0  0  0  0  0  0  0  0  0  0  0
   51.3198   45.1074  169.2287 H   0  0  0  0  0  0  0  0  0  0  0  0
   50.8990   41.4157  168.7022 H   0  0  0  0  0  0  0  0  0  0  0  0
   50.2841   44.8914  165.6538 H   0  0  0  0  0  0  0  0  0  0  0  0
   53.4324   44.8624  164.7551 C   0  0  0  0  0  0  0  0  0  0  0  0
   52.8269   45.6990  164.0660 O   0  0  0  0  0  0  0  0  0  0  0  0
   54.7536   44.8070  164.7242 O   0  0  0  0  0  0  0  0  0  0  0  0
   55.2083   44.1747  165.2452 H   0  0  0  0  0  0  0  0  0  0  0  0
   54.0983   41.2851  167.9538 O   0  0  0  0  0  0  0  0  0  0  0  0
   55.9460   40.8155  166.4002 C   0  0  0  0  0  0  0  0  0  0  0  0
   56.1819   38.6285  165.4264 C   0  0  0  0  0  0  0  0  0  0  0  0
   54.7820   40.3886  167.1031 C   0  0  0  0  0  0  0  0  0  0  0  0
   56.6289   39.9201  165.5652 C   0  0  0  0  0  0  0  0  0  0  0  0
   55.0109   38.1909  166.1362 C   0  0  0  0  0  0  0  0  0  0  0  0
   54.3301   39.0754  166.9646 C   0  0  0  0  0  0  0  0  0  0  0  0
   56.8846   37.7261  164.5753 N   0  0  0  0  0  0  0  0  0  0  0  0
   58.1954   38.0918  164.0502 O   0  0  0  0  0  0  0  0  0  0  0  0
   56.4177   36.7060  164.3043 O   0  0  0  0  0  0  0  0  0  0  0  0
  6  1  1  0  0  0
  7  2  1  0  0  0
  2  1  1  0  0  0
  2  3  1  0  0  0
  1  5  1  0  0  0
  5  9  1  0  0  0
  5  4  1  0  0  0
 17  3  1  0  0  0
 17 20  1  0  0  0
  3  8  1  0  0  0
  8  4  1  0  0  0
 20 18  2  0  0  0
 20 23  1  0  0  0
  4 13  1  0  0  0
 18 21  1  0  0  0
 13 14  2  0  0  0
 13 15  1  0  0  0
 23 22  2  0  0  0
 21 19  2  0  0  0
 22 19  1  0  0  0
 19 24  1  0  0  0
 24 25  2  0  0  0
 24 26  1  0  0  0
  6 10  1  0  0  0
  7 11  1  0  0  0
  9 12  1  0  0  0
 15 16  1  0  0  0
M  CHG 1  24   1
M  CHG 1  26  -1
M  END
> <minimizedAffinity>
-10.37591

$$$$
6AYI_C3G_A_201


 26 27  0  0  0  0  0  0  0  0999 V2000
   51.1628   43.9368  167.3141 C   0  0  0  0  0  0  0  0  0  0  0  0
   51.8688   42.8669  168.0294 C   0  0  0  0  0  0  0  0  0  0  0  0
   52.7932   42.0488  167.0949 C   0  0  0  0  0  0  0  0  0  0  0  0
   53.0419   44.0357  165.6547 C   0  0  0  0  0  0  0  0  0  0  0  0
   52.1141   44.8324  166.6064 C   0  0  0  0  0  0  0  0  0  0  0  0
   50.3767   44.7251  168.2784 O   0  0  0  0  0  0  0  0  0  0  0  0
   50.8920   41.9638  168.6424 O   0  0  0  0  0  0  0  0  0  0  0  0
   53.7177   42.9165  166.3271 O   0  0  0  0  0  0  0  0  0  0  0  0
   51.3878   45.7625  165.8635 O   0  0  0  0  0  0  0  0  0  0  0  0
   50.9724   45.1242  168.9317 H   0  0  0  0  0  0  0  0  0  0  0  0
   50.3491   41.5563  167.9495 H   0  0  0  0  0  0  0  0  0  0  0  0
   50.8415   45.2985  165.2099 H   0  0  0  0  0  0  0  0  0  0  0  0
   54.0971   44.9711  165.0913 C   0  0  0  0  0  0  0  0  0  0  0  0
   55.1415   44.5102  164.6032 O   0  0  0  0  0  0  0  0  0  0  0  0
   53.9019   46.2788  165.1290 O   0  0  0  0  0  0  0  0  0  0  0  0
   53.1129   46.6242  165.4979 H   0  0  0  0  0  0  0  0  0  0  0  0
   53.6069   41.1111  167.9779 O   0  0  0  0  0  0  0  0  0  0  0  0
   53.6436   38.7459  167.3050 C   0  0  0  0  0  0  0  0  0  0  0  0
   55.3318   37.9450  165.7900 C   0  0  0  0  0  0  0  0  0  0  0  0
   54.1992   40.0572  167.2478 C   0  0  0  0  0  0  0  0  0  0  0  0
   54.2272   37.7042  166.5705 C   0  0  0  0  0  0  0  0  0  0  0  0
   55.8941   39.2664  165.7248 C   0  0  0  0  0  0  0  0  0  0  0  0
   55.3194   40.3022  166.4521 C   0  0  0  0  0  0  0  0  0  0  0  0
   55.9167   36.8785  165.0464 N   0  0  0  0  0  0  0  0  0  0  0  0
   55.4377   35.5132  165.2320 O   0  0  0  0  0  0  0  0  0  0  0  0
   56.7666   37.0956  164.2965 O   0  0  0  0  0  0  0  0  0  0  0  0
  6  1  1  0  0  0
  7  2  1  0  0  0
  2  1  1  0  0  0
  2  3  1  0  0  0
  1  5  1  0  0  0
  5  9  1  0  0  0
  5  4  1  0  0  0
 17  3  1  0  0  0
 17 20  1  0  0  0
  3  8  1  0  0  0
  8  4  1  0  0  0
 20 18  2  0  0  0
 20 23  1  0  0  0
  4 13  1  0  0  0
 18 21  1  0  0  0
 13 14  2  0  0  0
 13 15  1  0  0  0
 23 22  2  0  0  0
 21 19  2  0  0  0
 22 19  1  0  0  0
 19 24  1  0  0  0
 24 25  2  0  0  0
 24 26  1  0  0  0
  6 10  1  0  0  0
  7 11  1  0  0  0
  9 12  1  0  0  0
 15 16  1  0  0  0
M  CHG 1  24   1
M  CHG 1  26  -1
M  END
> <minimizedAffinity>
-8.77213

$$$$
6AYI_C3G_A_201


 26 27  0  0  0  0  0  0  0  0999 V2000
   51.3061   41.9382  167.2026 C   0  0  0  0  0  0  0  0  0  0  0  0
   52.5564   41.2828  167.6049 C   0  0  0  0  0  0  0  0  0  0  0  0
   53.7006   41.5325  166.5922 C   0  0  0  0  0  0  0  0  0  0  0  0
   52.6378   43.6689  165.9675 C   0  0  0  0  0  0  0  0  0  0  0  0
   51.5047   43.3951  166.9885 C   0  0  0  0  0  0  0  0  0  0  0  0
   50.2940   41.7334  168.2530 O   0  0  0  0  0  0  0  0  0  0  0  0
   52.3334   39.8400  167.7248 O   0  0  0  0  0  0  0  0  0  0  0  0
   53.8884   42.9753  166.3088 O   0  0  0  0  0  0  0  0  0  0  0  0
   50.3160   43.9451  166.5100 O   0  0  0  0  0  0  0  0  0  0  0  0
   50.6038   42.1301  169.0822 H   0  0  0  0  0  0  0  0  0  0  0  0
   52.0681   39.4812  166.8636 H   0  0  0  0  0  0  0  0  0  0  0  0
   50.0838   43.5282  165.6655 H   0  0  0  0  0  0  0  0  0  0  0  0
   52.9102   45.1619  165.9161 C   0  0  0  0  0  0  0  0  0  0  0  0
   53.5875   45.6401  164.9920 O   0  0  0  0  0  0  0  0  0  0  0  0
   52.4286   45.9495  166.8634 O   0  0  0  0  0  0  0  0  0  0  0  0
   51.9177   45.5863  167.5598 H   0  0  0  0  0  0  0  0  0  0  0  0
   54.9765   40.9756  167.2109 O   0  0  0  0  0  0  0  0  0  0  0  0
   56.7530   40.2630  165.6667 C   0  0  0  0  0  0  0  0  0  0  0  0
   56.8030   38.0047  164.8393 C   0  0  0  0  0  0  0  0  0  0  0  0
   55.5736   39.9747  166.4131 C   0  0  0  0  0  0  0  0  0  0  0  0
   57.3496   39.2643  164.8844 C   0  0  0  0  0  0  0  0  0  0  0  0
   55.6160   37.7067  165.5935 C   0  0  0  0  0  0  0  0  0  0  0  0
   55.0204   38.6940  166.3698 C   0  0  0  0  0  0  0  0  0  0  0  0
   57.4184   36.9963  164.0412 N   0  0  0  0  0  0  0  0  0  0  0  0
   58.7245   37.2407  163.4392 O   0  0  0  0  0  0  0  0  0  0  0  0
   56.8849   35.9868  163.8738 O   0  0  0  0  0  0  0  0  0  0  0  0
  6  1  1  0  0  0
  7  2  1  0  0  0
  2  1  1  0  0  0
  2  3  1  0  0  0
  1  5  1  0  0  0
  5  9  1  0  0  0
  5  4  1  0  0  0
 17  3  1  0  0  0
 17 20  1  0  0  0
  3  8  1  0  0  0
  8  4  1  0  0  0
 20 18  2  0  0  0
 20 23  1  0  0  0
  4 13  1  0  0  0
 18 21  1  0  0  0
 13 14  2  0  0  0
 13 15  1  0  0  0
 23 22  2  0  0  0
 21 19  2  0  0  0
 22 19  1  0  0  0
 19 24  1  0  0  0
 24 25  2  0  0  0
 24 26  1  0  0  0
  6 10  1  0  0  0
  7 11  1  0  0  0
  9 12  1  0  0  0
 15 16  1  0  0  0
M  CHG 1  24   1
M  CHG 1  26  -1
M  END
> <minimizedAffinity>
-8.70262

$$$$
6AYI_C3G_A_201


 26 27  0  0  0  0  0  0  0  0999 V2000
   52.9389   43.3943  165.9685 C   0  0  0  0  0  0  0  0  0  0  0  0
   53.1680   41.9470  165.8813 C   0  0  0  0  0  0  0  0  0  0  0  0
   53.8598   41.3863  167.1479 C   0  0  0  0  0  0  0  0  0  0  0  0
   52.8442   43.2054  168.4684 C   0  0  0  0  0  0  0  0  0  0  0  0
   52.1628   43.7458  167.1859 C   0  0  0  0  0  0  0  0  0  0  0  0
   52.2002   43.8389  164.7743 O   0  0  0  0  0  0  0  0  0  0  0  0
   54.0036   41.6555  164.7141 O   0  0  0  0  0  0  0  0  0  0  0  0
   53.1442   41.7682  168.3886 O   0  0  0  0  0  0  0  0  0  0  0  0
   52.0650   45.1342  167.2710 O   0  0  0  0  0  0  0  0  0  0  0  0
   51.3427   43.3868  164.7376 H   0  0  0  0  0  0  0  0  0  0  0  0
   54.8640   42.0917  164.8154 H   0  0  0  0  0  0  0  0  0  0  0  0
   52.9536   45.5174  167.3385 H   0  0  0  0  0  0  0  0  0  0  0  0
   51.9283   43.4440  169.6559 C   0  0  0  0  0  0  0  0  0  0  0  0
   51.0107   44.2766  169.5774 O   0  0  0  0  0  0  0  0  0  0  0  0
   52.1165   42.7661  170.7760 O   0  0  0  0  0  0  0  0  0  0  0  0
   52.8097   42.1382  170.8328 H   0  0  0  0  0  0  0  0  0  0  0  0
   53.8639   39.8681  167.0218 O   0  0  0  0  0  0  0  0  0  0  0  0
   55.0265   38.0423  165.8544 C   0  0  0  0  0  0  0  0  0  0  0  0
   57.2211   38.3975  164.9353 C   0  0  0  0  0  0  0  0  0  0  0  0
   54.9978   39.3847  166.3324 C   0  0  0  0  0  0  0  0  0  0  0  0
   56.1490   37.5686  165.1608 C   0  0  0  0  0  0  0  0  0  0  0  0
   57.1961   39.7538  165.4113 C   0  0  0  0  0  0  0  0  0  0  0  0
   56.0857   40.2276  166.1002 C   0  0  0  0  0  0  0  0  0  0  0  0
   58.3571   37.9058  164.2281 N   0  0  0  0  0  0  0  0  0  0  0  0
   59.3273   38.8406  163.6691 O   0  0  0  0  0  0  0  0  0  0  0  0
   58.5101   36.7691  164.1003 O   0  0  0  0  0  0  0  0  0  0  0  0
  6  1  1  0  0  0
  7  2  1  0  0  0
  2  1  1  0  0  0
  2  3  1  0  0  0
  1  5  1  0  0  0
  5  9  1  0  0  0
  5  4  1  0  0  0
 17  3  1  0  0  0
 17 20  1  0  0  0
  3  8  1  0  0  0
  8  4  1  0  0  0
 20 18  2  0  0  0
 20 23  1  0  0  0
  4 13  1  0  0  0
 18 21  1  0  0  0
 13 14  2  0  0  0
 13 15  1  0  0  0
 23 22  2  0  0  0
 21 19  2  0  0  0
 22 19  1  0  0  0
 19 24  1  0  0  0
 24 25  2  0  0  0
 24 26  1  0  0  0
  6 10  1  0  0  0
  7 11  1  0  0  0
  9 12  1  0  0  0
 15 16  1  0  0  0
M  CHG 1  24   1
M  CHG 1  26  -1
M  END
> <minimizedAffinity>
-8.22982

$$$$
6AYI_C3G_A_201


 26 27  0  0  0  0  0  0  0  0999 V2000
   51.2930   45.1887  166.3225 C   0  0  0  0  0  0  0  0  0  0  0  0
   52.2430   44.6271  165.3544 C   0  0  0  0  0  0  0  0  0  0  0  0
   53.5874   44.2339  166.0140 C   0  0  0  0  0  0  0  0  0  0  0  0
   52.3971   43.8600  168.1418 C   0  0  0  0  0  0  0  0  0  0  0  0
   51.0648   44.2574  167.4576 C   0  0  0  0  0  0  0  0  0  0  0  0
   50.0126   45.4536  165.6443 O   0  0  0  0  0  0  0  0  0  0  0  0
   52.5001   45.6091  164.2984 O   0  0  0  0  0  0  0  0  0  0  0  0
   53.3942   43.3508  167.1887 O   0  0  0  0  0  0  0  0  0  0  0  0
   50.2398   44.8820  168.3923 O   0  0  0  0  0  0  0  0  0  0  0  0
   49.6527   44.6225  165.2970 H   0  0  0  0  0  0  0  0  0  0  0  0
   52.8987   46.4039  164.6861 H   0  0  0  0  0  0  0  0  0  0  0  0
   50.6740   45.6845  168.7216 H   0  0  0  0  0  0  0  0  0  0  0  0
   52.1224   42.7836  169.1770 C   0  0  0  0  0  0  0  0  0  0  0  0
   51.5845   41.7169  168.8389 O   0  0  0  0  0  0  0  0  0  0  0  0
   52.4522   42.9900  170.4412 O   0  0  0  0  0  0  0  0  0  0  0  0
   52.8581   43.7958  170.6939 H   0  0  0  0  0  0  0  0  0  0  0  0
   54.4032   43.4931  164.9620 O   0  0  0  0  0  0  0  0  0  0  0  0
   53.5288   41.3074  165.6737 C   0  0  0  0  0  0  0  0  0  0  0  0
   55.0200   39.4409  165.9549 C   0  0  0  0  0  0  0  0  0  0  0  0
   54.6240   42.1400  165.3013 C   0  0  0  0  0  0  0  0  0  0  0  0
   53.7496   39.9619  165.9992 C   0  0  0  0  0  0  0  0  0  0  0  0
   56.1281   40.2746  165.5758 C   0  0  0  0  0  0  0  0  0  0  0  0
   55.9140   41.6096  165.2531 C   0  0  0  0  0  0  0  0  0  0  0  0
   55.2331   38.0709  166.2870 N   0  0  0  0  0  0  0  0  0  0  0  0
   55.9635   37.2044  165.3686 O   0  0  0  0  0  0  0  0  0  0  0  0
   54.8305   37.6488  167.2828 O   0  0  0  0  0  0  0  0  0  0  0  0
  6  1  1  0  0  0
  7  2  1  0  0  0
  2  1  1  0  0  0
  2  3  1  0  0  0
  1  5  1  0  0  0
  5  9  1  0  0  0
  5  4  1  0  0  0
 17  3  1  0  0  0
 17 20  1  0  0  0
  3  8  1  0  0  0
  8  4  1  0  0  0
 20 18  2  0  0  0
 20 23  1  0  0  0
  4 13  1  0  0  0
 18 21  1  0  0  0
 13 14  2  0  0  0
 13 15  1  0  0  0
 23 22  2  0  0  0
 21 19  2  0  0  0
 22 19  1  0  0  0
 19 24  1  0  0  0
 24 25  2  0  0  0
 24 26  1  0  0  0
  6 10  1  0  0  0
  7 11  1  0  0  0
  9 12  1  0  0  0
 15 16  1  0  0  0
M  CHG 1  24   1
M  CHG 1  26  -1
M  END
> <minimizedAffinity>
-8.22678

$$$$
