3FH7_25P_A_612


 27 29  0  0  0  0  0  0  0  0999 V2000
   25.4343   86.7728   -1.3407 C   0  0  0  0  0  0  0  0  0  0  0  0
   26.3896   87.7190   -1.7383 C   0  0  0  0  0  0  0  0  0  0  0  0
   27.6812   87.6551   -1.1771 C   0  0  0  0  0  0  0  0  0  0  0  0
   25.7477   85.8063   -0.3961 C   0  0  0  0  0  0  0  0  0  0  0  0
   27.0235   85.7463    0.1704 C   0  0  0  0  0  0  0  0  0  0  0  0
   27.9994   86.6688   -0.2321 C   0  0  0  0  0  0  0  0  0  0  0  0
   24.1654   86.7995   -1.8099 O   0  0  0  0  0  0  0  0  0  0  0  0
   23.8245   86.6411   -4.1095 C   0  0  0  0  0  0  0  0  0  0  0  0
   23.4742   85.8820   -5.2180 C   0  0  0  0  0  0  0  0  0  0  0  0
   23.1592   84.5432   -5.0473 C   0  0  0  0  0  0  0  0  0  0  0  0
   22.7634   83.6360   -6.4336 Cl  0  0  0  0  0  0  0  0  0  0  0  0
   23.1703   83.9205   -3.8051 C   0  0  0  0  0  0  0  0  0  0  0  0
   23.5106   84.6790   -2.6925 C   0  0  0  0  0  0  0  0  0  0  0  0
   23.8411   86.0326   -2.8644 C   0  0  0  0  0  0  0  0  0  0  0  0
   29.2301   86.5734    0.3413 O   0  0  0  0  0  0  0  0  0  0  0  0
   30.0914   85.5954   -0.2192 C   0  0  0  0  0  0  0  0  0  0  0  0
   30.6654   85.0505    1.0849 C   0  0  0  0  0  0  0  0  0  0  0  0
   30.8741   86.1569    2.1086 C   0  0  0  0  0  0  0  0  0  0  0  0
   32.1044   85.6957    2.8491 C   0  0  0  0  0  0  0  0  0  0  0  0
   32.9545   85.1146    1.7438 C   0  0  0  0  0  0  0  0  0  0  0  0
   31.9796   84.3647    0.9358 N   0  0  0  0  0  0  0  0  0  0  0  0
   32.4356   84.2235   -0.4423 C   0  0  0  0  0  0  0  0  0  0  0  0
   33.9056   83.8785   -0.3780 C   0  0  0  0  0  0  0  0  0  0  0  0
   34.0591   82.3606   -0.4615 C   0  0  0  0  0  0  0  0  0  0  0  0
   34.8676   81.9342   -1.6707 C   0  0  0  0  0  0  0  0  0  0  0  0
   35.7460   81.0478   -1.5013 O   0  0  0  0  0  0  0  0  0  0  0  0
   34.6362   82.5515   -2.7208 O   0  0  0  0  0  0  0  0  0  0  0  0
  8  9  2  0  0  0
  8 14  1  0  0  0
  9 10  1  0  0  0
 10 11  1  0  0  0
 10 12  2  0  0  0
 12 13  1  0  0  0
 13 14  2  0  0  0
 14  7  1  0  0  0
  7  1  1  0  0  0
  1  2  2  0  0  0
  1  4  1  0  0  0
  2  3  1  0  0  0
  3  6  2  0  0  0
  4  5  2  0  0  0
  5  6  1  0  0  0
  6 15  1  0  0  0
 15 16  1  0  0  0
 16 17  1  0  0  0
 17 18  1  0  0  0
 17 21  1  0  0  0
 18 19  1  0  0  0
 19 20  1  0  0  0
 20 21  1  0  0  0
 21 22  1  0  0  0
 22 23  1  0  0  0
 23 24  1  0  0  0
 24 25  1  0  0  0
 25 26  1  0  0  0
 25 27  2  0  0  0
M  CHG 1  26  -1
M  END
> <minimizedAffinity>
-10.39138

$$$$
3FH7_25P_A_612


 27 29  0  0  0  0  0  0  0  0999 V2000
   26.4605   86.8328   -0.2366 C   0  0  0  0  0  0  0  0  0  0  0  0
   26.6830   86.1270    0.9543 C   0  0  0  0  0  0  0  0  0  0  0  0
   28.0105   85.8559    1.3435 C   0  0  0  0  0  0  0  0  0  0  0  0
   27.5258   87.2365   -1.0283 C   0  0  0  0  0  0  0  0  0  0  0  0
   28.8426   86.9603   -0.6513 C   0  0  0  0  0  0  0  0  0  0  0  0
   29.0862   86.2767    0.5480 C   0  0  0  0  0  0  0  0  0  0  0  0
   25.2121   87.0932   -0.6891 O   0  0  0  0  0  0  0  0  0  0  0  0
   24.1122   87.1207   -2.7431 C   0  0  0  0  0  0  0  0  0  0  0  0
   23.5934   86.4334   -3.8321 C   0  0  0  0  0  0  0  0  0  0  0  0
   23.7219   85.0544   -3.8838 C   0  0  0  0  0  0  0  0  0  0  0  0
   23.0999   84.2480   -5.2493 Cl  0  0  0  0  0  0  0  0  0  0  0  0
   24.3456   84.3192   -2.8831 C   0  0  0  0  0  0  0  0  0  0  0  0
   24.8571   85.0022   -1.7872 C   0  0  0  0  0  0  0  0  0  0  0  0
   24.7381   86.4003   -1.7380 C   0  0  0  0  0  0  0  0  0  0  0  0
   30.3831   86.0311    0.8802 O   0  0  0  0  0  0  0  0  0  0  0  0
   31.0680   85.1192    0.0366 C   0  0  0  0  0  0  0  0  0  0  0  0
   31.9328   84.4562    1.1041 C   0  0  0  0  0  0  0  0  0  0  0  0
   32.3786   85.4556    2.1616 C   0  0  0  0  0  0  0  0  0  0  0  0
   33.7483   84.9498    2.5393 C   0  0  0  0  0  0  0  0  0  0  0  0
   34.3129   84.5064    1.2101 C   0  0  0  0  0  0  0  0  0  0  0  0
   33.1739   83.8211    0.5787 N   0  0  0  0  0  0  0  0  0  0  0  0
   33.2916   83.8340   -0.8749 C   0  0  0  0  0  0  0  0  0  0  0  0
   34.7522   83.6102   -1.1923 C   0  0  0  0  0  0  0  0  0  0  0  0
   34.8683   82.4601   -2.1914 C   0  0  0  0  0  0  0  0  0  0  0  0
   34.9083   81.1093   -1.5047 C   0  0  0  0  0  0  0  0  0  0  0  0
   33.8234   80.4791   -1.3949 O   0  0  0  0  0  0  0  0  0  0  0  0
   36.0084   80.7686   -1.0454 O   0  0  0  0  0  0  0  0  0  0  0  0
  8  9  2  0  0  0
  8 14  1  0  0  0
  9 10  1  0  0  0
 10 11  1  0  0  0
 10 12  2  0  0  0
 12 13  1  0  0  0
 13 14  2  0  0  0
 14  7  1  0  0  0
  7  1  1  0  0  0
  1  2  2  0  0  0
  1  4  1  0  0  0
  2  3  1  0  0  0
  3  6  2  0  0  0
  4  5  2  0  0  0
  5  6  1  0  0  0
  6 15  1  0  0  0
 15 16  1  0  0  0
 16 17  1  0  0  0
 17 18  1  0  0  0
 17 21  1  0  0  0
 18 19  1  0  0  0
 19 20  1  0  0  0
 20 21  1  0  0  0
 21 22  1  0  0  0
 22 23  1  0  0  0
 23 24  1  0  0  0
 24 25  1  0  0  0
 25 26  1  0  0  0
 25 27  2  0  0  0
M  CHG 1  26  -1
M  END
> <minimizedAffinity>
-10.36310

$$$$
3FH7_25P_A_612


 27 29  0  0  0  0  0  0  0  0999 V2000
   29.0234   86.5917    1.1568 C   0  0  0  0  0  0  0  0  0  0  0  0
   28.9766   87.1010   -0.1487 C   0  0  0  0  0  0  0  0  0  0  0  0
   27.7241   87.2239   -0.7837 C   0  0  0  0  0  0  0  0  0  0  0  0
   27.8613   86.1951    1.8026 C   0  0  0  0  0  0  0  0  0  0  0  0
   26.6191   86.3054    1.1725 C   0  0  0  0  0  0  0  0  0  0  0  0
   26.5493   86.8346   -0.1237 C   0  0  0  0  0  0  0  0  0  0  0  0
   30.1942   86.4110    1.8106 O   0  0  0  0  0  0  0  0  0  0  0  0
   32.2545   85.3477    2.0431 C   0  0  0  0  0  0  0  0  0  0  0  0
   33.2274   84.4987    1.5330 C   0  0  0  0  0  0  0  0  0  0  0  0
   33.0200   83.8964    0.3022 C   0  0  0  0  0  0  0  0  0  0  0  0
   34.2218   82.8377   -0.2781 Cl  0  0  0  0  0  0  0  0  0  0  0  0
   31.8756   84.1103   -0.4564 C   0  0  0  0  0  0  0  0  0  0  0  0
   30.9044   84.9668    0.0459 C   0  0  0  0  0  0  0  0  0  0  0  0
   31.1072   85.5692    1.2977 C   0  0  0  0  0  0  0  0  0  0  0  0
   25.3198   86.9284   -0.6999 O   0  0  0  0  0  0  0  0  0  0  0  0
   25.2486   86.5243   -2.0578 C   0  0  0  0  0  0  0  0  0  0  0  0
   24.8751   85.0642   -1.8219 C   0  0  0  0  0  0  0  0  0  0  0  0
   25.8920   84.1198   -2.4463 C   0  0  0  0  0  0  0  0  0  0  0  0
   25.0399   82.9514   -2.8748 C   0  0  0  0  0  0  0  0  0  0  0  0
   23.7864   83.6267   -3.3797 C   0  0  0  0  0  0  0  0  0  0  0  0
   23.5475   84.6751   -2.3751 N   0  0  0  0  0  0  0  0  0  0  0  0
   22.7796   85.7794   -2.9387 C   0  0  0  0  0  0  0  0  0  0  0  0
   22.4886   85.4142   -4.3761 C   0  0  0  0  0  0  0  0  0  0  0  0
   23.4367   86.1957   -5.2843 C   0  0  0  0  0  0  0  0  0  0  0  0
   23.5687   85.5599   -6.6540 C   0  0  0  0  0  0  0  0  0  0  0  0
   24.0635   86.2603   -7.5763 O   0  0  0  0  0  0  0  0  0  0  0  0
   23.1099   84.4134   -6.7643 O   0  0  0  0  0  0  0  0  0  0  0  0
  8  9  2  0  0  0
  8 14  1  0  0  0
  9 10  1  0  0  0
 10 11  1  0  0  0
 10 12  2  0  0  0
 12 13  1  0  0  0
 13 14  2  0  0  0
 14  7  1  0  0  0
  7  1  1  0  0  0
  1  2  2  0  0  0
  1  4  1  0  0  0
  2  3  1  0  0  0
  3  6  2  0  0  0
  4  5  2  0  0  0
  5  6  1  0  0  0
  6 15  1  0  0  0
 15 16  1  0  0  0
 16 17  1  0  0  0
 17 18  1  0  0  0
 17 21  1  0  0  0
 18 19  1  0  0  0
 19 20  1  0  0  0
 20 21  1  0  0  0
 21 22  1  0  0  0
 22 23  1  0  0  0
 23 24  1  0  0  0
 24 25  1  0  0  0
 25 26  1  0  0  0
 25 27  2  0  0  0
M  CHG 1  26  -1
M  END
> <minimizedAffinity>
-8.83690

$$$$
3FH7_25P_A_612


 27 29  0  0  0  0  0  0  0  0999 V2000
   31.8779   85.0865    1.0084 C   0  0  0  0  0  0  0  0  0  0  0  0
   31.2638   85.0258   -0.2506 C   0  0  0  0  0  0  0  0  0  0  0  0
   29.9616   85.5460   -0.3953 C   0  0  0  0  0  0  0  0  0  0  0  0
   31.2078   85.6274    2.0961 C   0  0  0  0  0  0  0  0  0  0  0  0
   29.9129   86.1342    1.9591 C   0  0  0  0  0  0  0  0  0  0  0  0
   29.2913   86.1043    0.7030 C   0  0  0  0  0  0  0  0  0  0  0  0
   33.1101   84.5718    1.2268 O   0  0  0  0  0  0  0  0  0  0  0  0
   33.4222   82.4007    0.4403 C   0  0  0  0  0  0  0  0  0  0  0  0
   33.9857   81.5324   -0.4849 C   0  0  0  0  0  0  0  0  0  0  0  0
   34.7541   82.0499   -1.5157 C   0  0  0  0  0  0  0  0  0  0  0  0
   35.4046   80.9572   -2.6491 Cl  0  0  0  0  0  0  0  0  0  0  0  0
   34.9955   83.4103   -1.6639 C   0  0  0  0  0  0  0  0  0  0  0  0
   34.4416   84.2813   -0.7345 C   0  0  0  0  0  0  0  0  0  0  0  0
   33.6535   83.7604    0.3040 C   0  0  0  0  0  0  0  0  0  0  0  0
   28.0316   86.6115    0.6119 O   0  0  0  0  0  0  0  0  0  0  0  0
   27.0827   85.7787   -0.0350 C   0  0  0  0  0  0  0  0  0  0  0  0
   26.7696   86.6951   -1.2136 C   0  0  0  0  0  0  0  0  0  0  0  0
   26.3697   88.0875   -0.7476 C   0  0  0  0  0  0  0  0  0  0  0  0
   25.3581   88.5065   -1.7848 C   0  0  0  0  0  0  0  0  0  0  0  0
   24.5978   87.2259   -2.0382 C   0  0  0  0  0  0  0  0  0  0  0  0
   25.6635   86.2123   -2.0873 N   0  0  0  0  0  0  0  0  0  0  0  0
   25.1508   84.8918   -1.7404 C   0  0  0  0  0  0  0  0  0  0  0  0
   23.7596   84.8013   -2.3240 C   0  0  0  0  0  0  0  0  0  0  0  0
   23.7941   83.8733   -3.5372 C   0  0  0  0  0  0  0  0  0  0  0  0
   23.3523   84.5755   -4.8059 C   0  0  0  0  0  0  0  0  0  0  0  0
   22.7724   83.8829   -5.6835 O   0  0  0  0  0  0  0  0  0  0  0  0
   23.6645   85.7718   -4.8984 O   0  0  0  0  0  0  0  0  0  0  0  0
  8  9  2  0  0  0
  8 14  1  0  0  0
  9 10  1  0  0  0
 10 11  1  0  0  0
 10 12  2  0  0  0
 12 13  1  0  0  0
 13 14  2  0  0  0
 14  7  1  0  0  0
  7  1  1  0  0  0
  1  2  2  0  0  0
  1  4  1  0  0  0
  2  3  1  0  0  0
  3  6  2  0  0  0
  4  5  2  0  0  0
  5  6  1  0  0  0
  6 15  1  0  0  0
 15 16  1  0  0  0
 16 17  1  0  0  0
 17 18  1  0  0  0
 17 21  1  0  0  0
 18 19  1  0  0  0
 19 20  1  0  0  0
 20 21  1  0  0  0
 21 22  1  0  0  0
 22 23  1  0  0  0
 23 24  1  0  0  0
 24 25  1  0  0  0
 25 26  1  0  0  0
 25 27  2  0  0  0
M  CHG 1  26  -1
M  END
> <minimizedAffinity>
-8.59242

$$$$
3FH7_25P_A_612


 27 29  0  0  0  0  0  0  0  0999 V2000
   29.9822   85.9403    1.8364 C   0  0  0  0  0  0  0  0  0  0  0  0
   28.8775   85.4889    2.5724 C   0  0  0  0  0  0  0  0  0  0  0  0
   27.5845   85.6980    2.0512 C   0  0  0  0  0  0  0  0  0  0  0  0
   29.8048   86.6005    0.6291 C   0  0  0  0  0  0  0  0  0  0  0  0
   28.5244   86.8191    0.1143 C   0  0  0  0  0  0  0  0  0  0  0  0
   27.4086   86.3540    0.8240 C   0  0  0  0  0  0  0  0  0  0  0  0
   31.2481   85.8072    2.2954 O   0  0  0  0  0  0  0  0  0  0  0  0
   31.6006   84.2835    0.5681 C   0  0  0  0  0  0  0  0  0  0  0  0
   32.4581   83.4465   -0.1330 C   0  0  0  0  0  0  0  0  0  0  0  0
   33.7912   83.3797    0.2403 C   0  0  0  0  0  0  0  0  0  0  0  0
   34.8201   82.3649   -0.6616 Cl  0  0  0  0  0  0  0  0  0  0  0  0
   34.3134   84.1130    1.2988 C   0  0  0  0  0  0  0  0  0  0  0  0
   33.4564   84.9439    2.0090 C   0  0  0  0  0  0  0  0  0  0  0  0
   32.1081   85.0219    1.6255 C   0  0  0  0  0  0  0  0  0  0  0  0
   26.1798   86.5841    0.2859 O   0  0  0  0  0  0  0  0  0  0  0  0
   25.6678   85.5466   -0.5349 C   0  0  0  0  0  0  0  0  0  0  0  0
   25.7200   86.2887   -1.8666 C   0  0  0  0  0  0  0  0  0  0  0  0
   25.6344   87.7953   -1.6702 C   0  0  0  0  0  0  0  0  0  0  0  0
   24.8749   88.2465   -2.8926 C   0  0  0  0  0  0  0  0  0  0  0  0
   23.8495   87.1507   -3.0653 C   0  0  0  0  0  0  0  0  0  0  0  0
   24.6268   85.9270   -2.8121 N   0  0  0  0  0  0  0  0  0  0  0  0
   23.7663   84.8416   -2.3555 C   0  0  0  0  0  0  0  0  0  0  0  0
   23.7858   83.7892   -3.4400 C   0  0  0  0  0  0  0  0  0  0  0  0
   22.6108   84.0346   -4.3853 C   0  0  0  0  0  0  0  0  0  0  0  0
   23.0677   84.3137   -5.8034 C   0  0  0  0  0  0  0  0  0  0  0  0
   23.7516   85.3525   -6.0015 O   0  0  0  0  0  0  0  0  0  0  0  0
   22.6660   83.5198   -6.6669 O   0  0  0  0  0  0  0  0  0  0  0  0
  8  9  2  0  0  0
  8 14  1  0  0  0
  9 10  1  0  0  0
 10 11  1  0  0  0
 10 12  2  0  0  0
 12 13  1  0  0  0
 13 14  2  0  0  0
 14  7  1  0  0  0
  7  1  1  0  0  0
  1  2  2  0  0  0
  1  4  1  0  0  0
  2  3  1  0  0  0
  3  6  2  0  0  0
  4  5  2  0  0  0
  5  6  1  0  0  0
  6 15  1  0  0  0
 15 16  1  0  0  0
 16 17  1  0  0  0
 17 18  1  0  0  0
 17 21  1  0  0  0
 18 19  1  0  0  0
 19 20  1  0  0  0
 20 21  1  0  0  0
 21 22  1  0  0  0
 22 23  1  0  0  0
 23 24  1  0  0  0
 24 25  1  0  0  0
 25 26  1  0  0  0
 25 27  2  0  0  0
M  CHG 1  26  -1
M  END
> <minimizedAffinity>
-8.34828

$$$$
3FH7_25P_A_612


 27 29  0  0  0  0  0  0  0  0999 V2000
   24.2668   86.2817   -2.2771 C   0  0  0  0  0  0  0  0  0  0  0  0
   25.1836   85.3032   -1.8673 C   0  0  0  0  0  0  0  0  0  0  0  0
   26.4792   85.7062   -1.4849 C   0  0  0  0  0  0  0  0  0  0  0  0
   24.6351   87.6183   -2.3271 C   0  0  0  0  0  0  0  0  0  0  0  0
   25.9216   88.0204   -1.9591 C   0  0  0  0  0  0  0  0  0  0  0  0
   26.8449   87.0597   -1.5237 C   0  0  0  0  0  0  0  0  0  0  0  0
   23.0200   85.9613   -2.6938 O   0  0  0  0  0  0  0  0  0  0  0  0
   23.4554   85.5812   -4.9512 C   0  0  0  0  0  0  0  0  0  0  0  0
   23.3053   84.7903   -6.0823 C   0  0  0  0  0  0  0  0  0  0  0  0
   22.5855   83.6095   -5.9900 C   0  0  0  0  0  0  0  0  0  0  0  0
   22.4477   82.6501   -7.3908 Cl  0  0  0  0  0  0  0  0  0  0  0  0
   21.9948   83.1794   -4.8080 C   0  0  0  0  0  0  0  0  0  0  0  0
   22.1343   83.9728   -3.6766 C   0  0  0  0  0  0  0  0  0  0  0  0
   22.8725   85.1637   -3.7650 C   0  0  0  0  0  0  0  0  0  0  0  0
   28.0857   87.4937   -1.1708 O   0  0  0  0  0  0  0  0  0  0  0  0
   28.3019   87.6611    0.2211 C   0  0  0  0  0  0  0  0  0  0  0  0
   27.9309   86.2485    0.6615 C   0  0  0  0  0  0  0  0  0  0  0  0
   26.8898   86.2648    1.7713 C   0  0  0  0  0  0  0  0  0  0  0  0
   27.2682   85.0620    2.5987 C   0  0  0  0  0  0  0  0  0  0  0  0
   28.7780   85.1089    2.5752 C   0  0  0  0  0  0  0  0  0  0  0  0
   29.0770   85.4464    1.1744 N   0  0  0  0  0  0  0  0  0  0  0  0
   30.3748   86.1011    1.0559 C   0  0  0  0  0  0  0  0  0  0  0  0
   31.4143   85.0722    1.4363 C   0  0  0  0  0  0  0  0  0  0  0  0
   31.8621   84.3351    0.1751 C   0  0  0  0  0  0  0  0  0  0  0  0
   33.1022   83.4967    0.4137 C   0  0  0  0  0  0  0  0  0  0  0  0
   33.9845   83.9663    1.1799 O   0  0  0  0  0  0  0  0  0  0  0  0
   33.1706   82.4380   -0.2278 O   0  0  0  0  0  0  0  0  0  0  0  0
  8  9  2  0  0  0
  8 14  1  0  0  0
  9 10  1  0  0  0
 10 11  1  0  0  0
 10 12  2  0  0  0
 12 13  1  0  0  0
 13 14  2  0  0  0
 14  7  1  0  0  0
  7  1  1  0  0  0
  1  2  2  0  0  0
  1  4  1  0  0  0
  2  3  1  0  0  0
  3  6  2  0  0  0
  4  5  2  0  0  0
  5  6  1  0  0  0
  6 15  1  0  0  0
 15 16  1  0  0  0
 16 17  1  0  0  0
 17 18  1  0  0  0
 17 21  1  0  0  0
 18 19  1  0  0  0
 19 20  1  0  0  0
 20 21  1  0  0  0
 21 22  1  0  0  0
 22 23  1  0  0  0
 23 24  1  0  0  0
 24 25  1  0  0  0
 25 26  1  0  0  0
 25 27  2  0  0  0
M  CHG 1  26  -1
M  END
> <minimizedAffinity>
-8.32632

$$$$
