3F18_HS5_A_0


 20 20  0  0  0  0  0  0  0  0999 V2000
  -13.4929   -5.3842  -17.3925 O   0  0  0  0  0  0  0  0  0  0  0  0
  -12.3806   -5.0084  -18.2268 S   0  0  0  0  0  0  0  0  0  0  0  0
  -12.0511   -3.6634  -18.6781 O   0  0  0  0  0  0  0  0  0  0  0  0
  -11.1100   -5.6852  -17.4788 C   0  0  0  0  0  0  0  0  0  0  0  0
  -11.1706   -5.9114  -16.0958 C   0  0  0  0  0  0  0  0  0  0  0  0
  -10.1029   -6.5133  -15.4256 C   0  0  0  0  0  0  0  0  0  0  0  0
   -8.9603   -6.9063  -16.1227 C   0  0  0  0  0  0  0  0  0  0  0  0
   -7.9289   -7.4903  -15.4791 F   0  0  0  0  0  0  0  0  0  0  0  0
   -8.8901   -6.6917  -17.4993 C   0  0  0  0  0  0  0  0  0  0  0  0
   -9.9607   -6.0911  -18.1677 C   0  0  0  0  0  0  0  0  0  0  0  0
  -13.0363   -5.6461  -19.4721 N   0  0  0  0  0  0  0  0  0  0  0  0
  -13.4238   -7.0610  -19.4718 C   0  0  0  0  0  0  0  0  0  0  0  0
  -12.6153   -7.9632  -20.3789 C   0  0  0  0  0  0  0  0  0  0  0  0
  -12.7934   -8.0164  -21.5910 O   0  0  0  0  0  0  0  0  0  0  0  0
  -11.6702   -8.6888  -19.7921 N   0  0  0  0  0  0  0  0  0  0  0  0
  -11.5468  -10.0106  -20.1877 O   0  0  0  0  0  0  0  0  0  0  0  0
  -13.1636   -4.8932  -20.7185 C   0  0  0  0  0  0  0  0  0  0  0  0
  -12.2207   -4.5272  -21.8581 C   0  0  0  0  0  0  0  0  0  0  0  0
  -10.8916   -4.5863  -21.3240 O   0  0  0  0  0  0  0  0  0  0  0  0
  -10.8151   -3.9709  -20.5782 H   0  0  0  0  0  0  0  0  0  0  0  0
  1  2  2  0  0  0
  2  3  2  0  0  0
  2 11  1  0  0  0
  2  4  1  0  0  0
 11 12  1  0  0  0
 11 17  1  0  0  0
 12 13  1  0  0  0
 13 14  2  0  0  0
 13 15  1  0  0  0
 15 16  2  0  0  0
 17 18  1  0  0  0
 18 19  1  0  0  0
  4  5  2  0  0  0
  4 10  1  0  0  0
  5  6  1  0  0  0
  6  7  2  0  0  0
  7  8  1  0  0  0
  7  9  1  0  0  0
  9 10  2  0  0  0
 19 20  1  0  0  0
M  END
> <minimizedAffinity>
-7.01652

$$$$
3F18_HS5_A_0


 20 20  0  0  0  0  0  0  0  0999 V2000
  -13.0599   -7.6419  -19.2692 O   0  0  0  0  0  0  0  0  0  0  0  0
  -12.9128   -6.3113  -18.7379 S   0  0  0  0  0  0  0  0  0  0  0  0
  -13.9315   -5.5391  -18.0397 O   0  0  0  0  0  0  0  0  0  0  0  0
  -11.5642   -6.4159  -17.8421 C   0  0  0  0  0  0  0  0  0  0  0  0
  -11.6726   -6.4585  -16.4442 C   0  0  0  0  0  0  0  0  0  0  0  0
  -10.5324   -6.5717  -15.6451 C   0  0  0  0  0  0  0  0  0  0  0  0
   -9.2662   -6.6515  -16.2251 C   0  0  0  0  0  0  0  0  0  0  0  0
   -8.1636   -6.7638  -15.4566 F   0  0  0  0  0  0  0  0  0  0  0  0
   -9.1457   -6.6157  -17.6144 C   0  0  0  0  0  0  0  0  0  0  0  0
  -10.2883   -6.5044  -18.4117 C   0  0  0  0  0  0  0  0  0  0  0  0
  -12.9127   -5.6933  -20.1540 N   0  0  0  0  0  0  0  0  0  0  0  0
  -11.9244   -4.6748  -20.5257 C   0  0  0  0  0  0  0  0  0  0  0  0
  -12.3960   -3.2394  -20.4373 C   0  0  0  0  0  0  0  0  0  0  0  0
  -12.9483   -2.6644  -21.3690 O   0  0  0  0  0  0  0  0  0  0  0  0
  -12.2020   -2.6299  -19.2734 N   0  0  0  0  0  0  0  0  0  0  0  0
  -12.5617   -1.2949  -19.1877 O   0  0  0  0  0  0  0  0  0  0  0  0
  -13.9735   -6.0100  -21.1083 C   0  0  0  0  0  0  0  0  0  0  0  0
  -14.0498   -6.7865  -22.4172 C   0  0  0  0  0  0  0  0  0  0  0  0
  -14.0440   -8.1771  -22.0685 O   0  0  0  0  0  0  0  0  0  0  0  0
  -13.2367   -8.3825  -21.5715 H   0  0  0  0  0  0  0  0  0  0  0  0
  1  2  2  0  0  0
  2  3  2  0  0  0
  2 11  1  0  0  0
  2  4  1  0  0  0
 11 12  1  0  0  0
 11 17  1  0  0  0
 12 13  1  0  0  0
 13 14  2  0  0  0
 13 15  1  0  0  0
 15 16  2  0  0  0
 17 18  1  0  0  0
 18 19  1  0  0  0
  4  5  2  0  0  0
  4 10  1  0  0  0
  5  6  1  0  0  0
  6  7  2  0  0  0
  7  8  1  0  0  0
  7  9  1  0  0  0
  9 10  2  0  0  0
 19 20  1  0  0  0
M  END
> <minimizedAffinity>
-6.77628

$$$$
3F18_HS5_A_0


 20 20  0  0  0  0  0  0  0  0999 V2000
  -12.7431   -5.2871  -17.5687 O   0  0  0  0  0  0  0  0  0  0  0  0
  -11.6317   -5.6772  -18.3975 S   0  0  0  0  0  0  0  0  0  0  0  0
  -11.0152   -4.8829  -19.4512 O   0  0  0  0  0  0  0  0  0  0  0  0
  -10.5170   -6.1588  -17.3215 C   0  0  0  0  0  0  0  0  0  0  0  0
   -9.2303   -6.4905  -17.7709 C   0  0  0  0  0  0  0  0  0  0  0  0
   -8.2411   -6.8866  -16.8676 C   0  0  0  0  0  0  0  0  0  0  0  0
   -8.5149   -6.9519  -15.5013 C   0  0  0  0  0  0  0  0  0  0  0  0
   -7.5613   -7.3311  -14.6261 F   0  0  0  0  0  0  0  0  0  0  0  0
   -9.7892   -6.6192  -15.0414 C   0  0  0  0  0  0  0  0  0  0  0  0
  -10.7765   -6.2213  -15.9471 C   0  0  0  0  0  0  0  0  0  0  0  0
  -12.5056   -6.6822  -19.1808 N   0  0  0  0  0  0  0  0  0  0  0  0
  -13.8824   -6.3424  -19.5564 C   0  0  0  0  0  0  0  0  0  0  0  0
  -14.0316   -5.4696  -20.7839 C   0  0  0  0  0  0  0  0  0  0  0  0
  -14.3553   -4.2885  -20.7224 O   0  0  0  0  0  0  0  0  0  0  0  0
  -13.7659   -6.0482  -21.9495 N   0  0  0  0  0  0  0  0  0  0  0  0
  -14.5526   -7.1278  -22.3167 O   0  0  0  0  0  0  0  0  0  0  0  0
  -12.0291   -8.0378  -19.4484 C   0  0  0  0  0  0  0  0  0  0  0  0
  -12.2310   -9.0501  -20.5693 C   0  0  0  0  0  0  0  0  0  0  0  0
  -11.8588   -8.3913  -21.7870 O   0  0  0  0  0  0  0  0  0  0  0  0
  -12.4084   -7.6014  -21.9084 H   0  0  0  0  0  0  0  0  0  0  0  0
  1  2  2  0  0  0
  2  3  2  0  0  0
  2 11  1  0  0  0
  2  4  1  0  0  0
 11 12  1  0  0  0
 11 17  1  0  0  0
 12 13  1  0  0  0
 13 14  2  0  0  0
 13 15  1  0  0  0
 15 16  2  0  0  0
 17 18  1  0  0  0
 18 19  1  0  0  0
  4  5  2  0  0  0
  4 10  1  0  0  0
  5  6  1  0  0  0
  6  7  2  0  0  0
  7  8  1  0  0  0
  7  9  1  0  0  0
  9 10  2  0  0  0
 19 20  1  0  0  0
M  END
> <minimizedAffinity>
-6.77617

$$$$
3F18_HS5_A_0


 20 20  0  0  0  0  0  0  0  0999 V2000
  -12.7888   -7.6914  -19.3977 O   0  0  0  0  0  0  0  0  0  0  0  0
  -12.7152   -6.3741  -18.8201 S   0  0  0  0  0  0  0  0  0  0  0  0
  -13.8157   -5.6224  -18.2327 O   0  0  0  0  0  0  0  0  0  0  0  0
  -11.4852   -6.4974  -17.7694 C   0  0  0  0  0  0  0  0  0  0  0  0
  -10.1720   -6.5650  -18.2578 C   0  0  0  0  0  0  0  0  0  0  0  0
   -9.0893   -6.6484  -17.3790 C   0  0  0  0  0  0  0  0  0  0  0  0
   -9.2960   -6.6587  -15.9995 C   0  0  0  0  0  0  0  0  0  0  0  0
   -8.2528   -6.7362  -15.1483 F   0  0  0  0  0  0  0  0  0  0  0  0
  -10.5970   -6.5866  -15.5013 C   0  0  0  0  0  0  0  0  0  0  0  0
  -11.6784   -6.5011  -16.3828 C   0  0  0  0  0  0  0  0  0  0  0  0
  -12.5461   -5.7210  -20.2102 N   0  0  0  0  0  0  0  0  0  0  0  0
  -12.8611   -6.4697  -21.4318 C   0  0  0  0  0  0  0  0  0  0  0  0
  -14.2075   -6.1718  -22.0555 C   0  0  0  0  0  0  0  0  0  0  0  0
  -14.7078   -5.0522  -22.0499 O   0  0  0  0  0  0  0  0  0  0  0  0
  -14.8204   -7.1940  -22.6415 N   0  0  0  0  0  0  0  0  0  0  0  0
  -14.1357   -8.3969  -22.6988 O   0  0  0  0  0  0  0  0  0  0  0  0
  -11.9455   -4.3953  -20.3455 C   0  0  0  0  0  0  0  0  0  0  0  0
  -12.4254   -2.9664  -20.1226 C   0  0  0  0  0  0  0  0  0  0  0  0
  -12.3927   -2.7403  -18.7073 O   0  0  0  0  0  0  0  0  0  0  0  0
  -12.9624   -3.3877  -18.2632 H   0  0  0  0  0  0  0  0  0  0  0  0
  1  2  2  0  0  0
  2  3  2  0  0  0
  2 11  1  0  0  0
  2  4  1  0  0  0
 11 12  1  0  0  0
 11 17  1  0  0  0
 12 13  1  0  0  0
 13 14  2  0  0  0
 13 15  1  0  0  0
 15 16  2  0  0  0
 17 18  1  0  0  0
 18 19  1  0  0  0
  4  5  2  0  0  0
  4 10  1  0  0  0
  5  6  1  0  0  0
  6  7  2  0  0  0
  7  8  1  0  0  0
  7  9  1  0  0  0
  9 10  2  0  0  0
 19 20  1  0  0  0
M  END
> <minimizedAffinity>
-6.73808

$$$$
3F18_HS5_A_0


 20 20  0  0  0  0  0  0  0  0999 V2000
  -13.4660   -5.5563  -17.8469 O   0  0  0  0  0  0  0  0  0  0  0  0
  -12.2518   -5.1900  -18.5296 S   0  0  0  0  0  0  0  0  0  0  0  0
  -11.8847   -3.8583  -18.9910 O   0  0  0  0  0  0  0  0  0  0  0  0
  -11.0905   -5.8026  -17.5767 C   0  0  0  0  0  0  0  0  0  0  0  0
  -11.3587   -6.0054  -16.2149 C   0  0  0  0  0  0  0  0  0  0  0  0
  -10.3882   -6.5525  -15.3722 C   0  0  0  0  0  0  0  0  0  0  0  0
   -9.1372   -6.9133  -15.8731 C   0  0  0  0  0  0  0  0  0  0  0  0
   -8.1990   -7.4445  -15.0628 F   0  0  0  0  0  0  0  0  0  0  0  0
   -8.8602   -6.7216  -17.2268 C   0  0  0  0  0  0  0  0  0  0  0  0
   -9.8338   -6.1759  -18.0682 C   0  0  0  0  0  0  0  0  0  0  0  0
  -12.7095   -5.8969  -19.8251 N   0  0  0  0  0  0  0  0  0  0  0  0
  -12.7217   -5.1793  -21.1046 C   0  0  0  0  0  0  0  0  0  0  0  0
  -14.0773   -4.6968  -21.5737 C   0  0  0  0  0  0  0  0  0  0  0  0
  -14.7354   -3.8660  -20.9569 O   0  0  0  0  0  0  0  0  0  0  0  0
  -14.5163   -5.2068  -22.7188 N   0  0  0  0  0  0  0  0  0  0  0  0
  -14.7928   -6.5640  -22.7450 O   0  0  0  0  0  0  0  0  0  0  0  0
  -13.2640   -7.2487  -19.7836 C   0  0  0  0  0  0  0  0  0  0  0  0
  -12.6767   -8.6539  -19.7375 C   0  0  0  0  0  0  0  0  0  0  0  0
  -11.3345   -8.5525  -20.2313 O   0  0  0  0  0  0  0  0  0  0  0  0
  -11.3479   -8.1944  -21.1327 H   0  0  0  0  0  0  0  0  0  0  0  0
  1  2  2  0  0  0
  2  3  2  0  0  0
  2 11  1  0  0  0
  2  4  1  0  0  0
 11 12  1  0  0  0
 11 17  1  0  0  0
 12 13  1  0  0  0
 13 14  2  0  0  0
 13 15  1  0  0  0
 15 16  2  0  0  0
 17 18  1  0  0  0
 18 19  1  0  0  0
  4  5  2  0  0  0
  4 10  1  0  0  0
  5  6  1  0  0  0
  6  7  2  0  0  0
  7  8  1  0  0  0
  7  9  1  0  0  0
  9 10  2  0  0  0
 19 20  1  0  0  0
M  END
> <minimizedAffinity>
-6.69829

$$$$
3F18_HS5_A_0


 20 20  0  0  0  0  0  0  0  0999 V2000
  -12.2673   -6.8888  -19.8178 O   0  0  0  0  0  0  0  0  0  0  0  0
  -12.4797   -5.9160  -18.7772 S   0  0  0  0  0  0  0  0  0  0  0  0
  -13.7320   -5.6480  -18.0835 O   0  0  0  0  0  0  0  0  0  0  0  0
  -11.2991   -6.2453  -17.7143 C   0  0  0  0  0  0  0  0  0  0  0  0
  -11.6326   -6.4818  -16.3725 C   0  0  0  0  0  0  0  0  0  0  0  0
  -10.6424   -6.7907  -15.4368 C   0  0  0  0  0  0  0  0  0  0  0  0
   -9.3047   -6.8760  -15.8233 C   0  0  0  0  0  0  0  0  0  0  0  0
   -8.3466   -7.1768  -14.9231 F   0  0  0  0  0  0  0  0  0  0  0  0
   -8.9610   -6.6482  -17.1560 C   0  0  0  0  0  0  0  0  0  0  0  0
   -9.9540   -6.3413  -18.0905 C   0  0  0  0  0  0  0  0  0  0  0  0
  -12.3778   -4.7468  -19.7823 N   0  0  0  0  0  0  0  0  0  0  0  0
  -12.3828   -5.0000  -21.2273 C   0  0  0  0  0  0  0  0  0  0  0  0
  -13.6355   -4.5768  -21.9635 C   0  0  0  0  0  0  0  0  0  0  0  0
  -14.7186   -5.1283  -21.8007 O   0  0  0  0  0  0  0  0  0  0  0  0
  -13.5086   -3.5452  -22.7903 N   0  0  0  0  0  0  0  0  0  0  0  0
  -14.3297   -2.4511  -22.5714 O   0  0  0  0  0  0  0  0  0  0  0  0
  -12.1414   -3.3808  -19.3191 C   0  0  0  0  0  0  0  0  0  0  0  0
  -12.8500   -2.0438  -19.4984 C   0  0  0  0  0  0  0  0  0  0  0  0
  -12.3280   -1.4625  -20.7005 O   0  0  0  0  0  0  0  0  0  0  0  0
  -11.3674   -1.3557  -20.6173 H   0  0  0  0  0  0  0  0  0  0  0  0
  1  2  2  0  0  0
  2  3  2  0  0  0
  2 11  1  0  0  0
  2  4  1  0  0  0
 11 12  1  0  0  0
 11 17  1  0  0  0
 12 13  1  0  0  0
 13 14  2  0  0  0
 13 15  1  0  0  0
 15 16  2  0  0  0
 17 18  1  0  0  0
 18 19  1  0  0  0
  4  5  2  0  0  0
  4 10  1  0  0  0
  5  6  1  0  0  0
  6  7  2  0  0  0
  7  8  1  0  0  0
  7  9  1  0  0  0
  9 10  2  0  0  0
 19 20  1  0  0  0
M  END
> <minimizedAffinity>
-6.39239

$$$$
3F18_HS5_A_0


 20 20  0  0  0  0  0  0  0  0999 V2000
  -13.8835   -5.8262  -18.1068 O   0  0  0  0  0  0  0  0  0  0  0  0
  -12.7100   -5.2603  -18.7209 S   0  0  0  0  0  0  0  0  0  0  0  0
  -12.4873   -3.8555  -19.0341 O   0  0  0  0  0  0  0  0  0  0  0  0
  -11.4984   -5.8396  -17.8106 C   0  0  0  0  0  0  0  0  0  0  0  0
  -11.7438   -6.1581  -16.4667 C   0  0  0  0  0  0  0  0  0  0  0  0
  -10.7283   -6.6804  -15.6622 C   0  0  0  0  0  0  0  0  0  0  0  0
   -9.4536   -6.9007  -16.1845 C   0  0  0  0  0  0  0  0  0  0  0  0
   -8.4717   -7.4076  -15.4112 F   0  0  0  0  0  0  0  0  0  0  0  0
   -9.1985   -6.5931  -17.5210 C   0  0  0  0  0  0  0  0  0  0  0  0
  -10.2170   -6.0725  -18.3243 C   0  0  0  0  0  0  0  0  0  0  0  0
  -13.0727   -5.8728  -20.0923 N   0  0  0  0  0  0  0  0  0  0  0  0
  -13.3470   -5.0112  -21.2474 C   0  0  0  0  0  0  0  0  0  0  0  0
  -12.3326   -5.0742  -22.3689 C   0  0  0  0  0  0  0  0  0  0  0  0
  -11.2913   -4.4267  -22.3583 O   0  0  0  0  0  0  0  0  0  0  0  0
  -12.6179   -5.8980  -23.3709 N   0  0  0  0  0  0  0  0  0  0  0  0
  -11.6205   -6.7670  -23.7822 O   0  0  0  0  0  0  0  0  0  0  0  0
  -13.2800   -7.3125  -20.2370 C   0  0  0  0  0  0  0  0  0  0  0  0
  -12.4229   -8.4839  -20.7007 C   0  0  0  0  0  0  0  0  0  0  0  0
  -12.6917   -8.6592  -22.0980 O   0  0  0  0  0  0  0  0  0  0  0  0
  -13.6381   -8.8290  -22.2264 H   0  0  0  0  0  0  0  0  0  0  0  0
  1  2  2  0  0  0
  2  3  2  0  0  0
  2 11  1  0  0  0
  2  4  1  0  0  0
 11 12  1  0  0  0
 11 17  1  0  0  0
 12 13  1  0  0  0
 13 14  2  0  0  0
 13 15  1  0  0  0
 15 16  2  0  0  0
 17 18  1  0  0  0
 18 19  1  0  0  0
  4  5  2  0  0  0
  4 10  1  0  0  0
  5  6  1  0  0  0
  6  7  2  0  0  0
  7  8  1  0  0  0
  7  9  1  0  0  0
  9 10  2  0  0  0
 19 20  1  0  0  0
M  END
> <minimizedAffinity>
-6.24646

$$$$
3F18_HS5_A_0


 20 20  0  0  0  0  0  0  0  0999 V2000
  -12.4954   -6.5667  -20.4877 O   0  0  0  0  0  0  0  0  0  0  0  0
  -12.9379   -5.5988  -19.5173 S   0  0  0  0  0  0  0  0  0  0  0  0
  -14.3088   -5.3745  -19.0795 O   0  0  0  0  0  0  0  0  0  0  0  0
  -11.9727   -5.8810  -18.2442 C   0  0  0  0  0  0  0  0  0  0  0  0
  -10.6551   -6.3083  -18.4656 C   0  0  0  0  0  0  0  0  0  0  0  0
   -9.7915   -6.5379  -17.3919 C   0  0  0  0  0  0  0  0  0  0  0  0
  -10.2235   -6.3389  -16.0805 C   0  0  0  0  0  0  0  0  0  0  0  0
   -9.3913   -6.5569  -15.0418 F   0  0  0  0  0  0  0  0  0  0  0  0
  -11.5299   -5.9089  -15.8475 C   0  0  0  0  0  0  0  0  0  0  0  0
  -12.3914   -5.6780  -16.9237 C   0  0  0  0  0  0  0  0  0  0  0  0
  -12.6861   -4.4300  -20.4962 N   0  0  0  0  0  0  0  0  0  0  0  0
  -13.6169   -3.2982  -20.5651 C   0  0  0  0  0  0  0  0  0  0  0  0
  -13.0124   -1.9347  -20.3083 C   0  0  0  0  0  0  0  0  0  0  0  0
  -12.4447   -1.6478  -19.2599 O   0  0  0  0  0  0  0  0  0  0  0  0
  -13.1060   -1.0564  -21.3001 N   0  0  0  0  0  0  0  0  0  0  0  0
  -14.3742   -0.6133  -21.6385 O   0  0  0  0  0  0  0  0  0  0  0  0
  -11.5930   -4.4881  -21.4648 C   0  0  0  0  0  0  0  0  0  0  0  0
  -11.5015   -4.5852  -22.9827 C   0  0  0  0  0  0  0  0  0  0  0  0
  -11.4212   -5.9812  -23.2990 O   0  0  0  0  0  0  0  0  0  0  0  0
  -10.6452   -6.3673  -22.8634 H   0  0  0  0  0  0  0  0  0  0  0  0
  1  2  2  0  0  0
  2  3  2  0  0  0
  2 11  1  0  0  0
  2  4  1  0  0  0
 11 12  1  0  0  0
 11 17  1  0  0  0
 12 13  1  0  0  0
 13 14  2  0  0  0
 13 15  1  0  0  0
 15 16  2  0  0  0
 17 18  1  0  0  0
 18 19  1  0  0  0
  4  5  2  0  0  0
  4 10  1  0  0  0
  5  6  1  0  0  0
  6  7  2  0  0  0
  7  8  1  0  0  0
  7  9  1  0  0  0
  9 10  2  0  0  0
 19 20  1  0  0  0
M  END
> <minimizedAffinity>
-5.92949

$$$$
3F18_HS5_A_0


 20 20  0  0  0  0  0  0  0  0999 V2000
  -14.4499   -5.7375  -21.2600 O   0  0  0  0  0  0  0  0  0  0  0  0
  -13.1936   -5.1334  -20.8975 S   0  0  0  0  0  0  0  0  0  0  0  0
  -11.8877   -5.4427  -21.4633 O   0  0  0  0  0  0  0  0  0  0  0  0
  -13.5001   -3.5441  -21.0081 C   0  0  0  0  0  0  0  0  0  0  0  0
  -14.7900   -3.1184  -21.3582 C   0  0  0  0  0  0  0  0  0  0  0  0
  -15.0926   -1.7571  -21.4396 C   0  0  0  0  0  0  0  0  0  0  0  0
  -14.1177   -0.7974  -21.1668 C   0  0  0  0  0  0  0  0  0  0  0  0
  -14.4073    0.5177  -21.2417 F   0  0  0  0  0  0  0  0  0  0  0  0
  -12.8325   -1.2080  -20.8124 C   0  0  0  0  0  0  0  0  0  0  0  0
  -12.5329   -2.5708  -20.7297 C   0  0  0  0  0  0  0  0  0  0  0  0
  -13.1733   -5.8738  -19.5414 N   0  0  0  0  0  0  0  0  0  0  0  0
  -12.7703   -5.1774  -18.3148 C   0  0  0  0  0  0  0  0  0  0  0  0
  -11.5725   -5.7572  -17.5940 C   0  0  0  0  0  0  0  0  0  0  0  0
  -11.6385   -6.2099  -16.4563 O   0  0  0  0  0  0  0  0  0  0  0  0
  -10.4320   -5.7754  -18.2744 N   0  0  0  0  0  0  0  0  0  0  0  0
   -9.5808   -6.8468  -18.0587 O   0  0  0  0  0  0  0  0  0  0  0  0
  -13.4255   -7.3118  -19.4707 C   0  0  0  0  0  0  0  0  0  0  0  0
  -12.6477   -8.5633  -19.8588 C   0  0  0  0  0  0  0  0  0  0  0  0
  -11.2767   -8.1666  -19.9951 O   0  0  0  0  0  0  0  0  0  0  0  0
  -11.2065   -7.4724  -20.6689 H   0  0  0  0  0  0  0  0  0  0  0  0
  1  2  2  0  0  0
  2  3  2  0  0  0
  2 11  1  0  0  0
  2  4  1  0  0  0
 11 12  1  0  0  0
 11 17  1  0  0  0
 12 13  1  0  0  0
 13 14  2  0  0  0
 13 15  1  0  0  0
 15 16  2  0  0  0
 17 18  1  0  0  0
 18 19  1  0  0  0
  4  5  2  0  0  0
  4 10  1  0  0  0
  5  6  1  0  0  0
  6  7  2  0  0  0
  7  8  1  0  0  0
  7  9  1  0  0  0
  9 10  2  0  0  0
 19 20  1  0  0  0
M  END
> <minimizedAffinity>
-5.85372

$$$$
3F18_HS5_A_0


 20 20  0  0  0  0  0  0  0  0999 V2000
  -10.8828   -4.4657  -20.4533 O   0  0  0  0  0  0  0  0  0  0  0  0
  -12.0822   -3.8985  -19.8930 S   0  0  0  0  0  0  0  0  0  0  0  0
  -12.1662   -2.7314  -19.0257 O   0  0  0  0  0  0  0  0  0  0  0  0
  -13.0467   -3.7182  -21.1850 C   0  0  0  0  0  0  0  0  0  0  0  0
  -12.6094   -4.1799  -22.4353 C   0  0  0  0  0  0  0  0  0  0  0  0
  -13.4250   -4.0607  -23.5631 C   0  0  0  0  0  0  0  0  0  0  0  0
  -14.6924   -3.4863  -23.4630 C   0  0  0  0  0  0  0  0  0  0  0  0
  -15.4835   -3.3723  -24.5493 F   0  0  0  0  0  0  0  0  0  0  0  0
  -15.1408   -3.0282  -22.2240 C   0  0  0  0  0  0  0  0  0  0  0  0
  -14.3235   -3.1506  -21.0968 C   0  0  0  0  0  0  0  0  0  0  0  0
  -12.2392   -5.0794  -18.9089 N   0  0  0  0  0  0  0  0  0  0  0  0
  -13.3562   -6.0210  -19.0423 C   0  0  0  0  0  0  0  0  0  0  0  0
  -13.2700   -6.9806  -20.2095 C   0  0  0  0  0  0  0  0  0  0  0  0
  -14.1543   -7.0795  -21.0533 O   0  0  0  0  0  0  0  0  0  0  0  0
  -12.1599   -7.7051  -20.2912 N   0  0  0  0  0  0  0  0  0  0  0  0
  -11.9398   -8.6442  -19.2968 O   0  0  0  0  0  0  0  0  0  0  0  0
  -11.3592   -5.2083  -17.7490 C   0  0  0  0  0  0  0  0  0  0  0  0
  -10.2309   -6.1520  -17.3511 C   0  0  0  0  0  0  0  0  0  0  0  0
   -9.8055   -6.8097  -18.5519 O   0  0  0  0  0  0  0  0  0  0  0  0
  -10.5551   -7.2852  -18.9430 H   0  0  0  0  0  0  0  0  0  0  0  0
  1  2  2  0  0  0
  2  3  2  0  0  0
  2 11  1  0  0  0
  2  4  1  0  0  0
 11 12  1  0  0  0
 11 17  1  0  0  0
 12 13  1  0  0  0
 13 14  2  0  0  0
 13 15  1  0  0  0
 15 16  2  0  0  0
 17 18  1  0  0  0
 18 19  1  0  0  0
  4  5  2  0  0  0
  4 10  1  0  0  0
  5  6  1  0  0  0
  6  7  2  0  0  0
  7  8  1  0  0  0
  7  9  1  0  0  0
  9 10  2  0  0  0
 19 20  1  0  0  0
M  END
> <minimizedAffinity>
-5.74549

$$$$
