2YI7_BZ8_A_1225


 25 27  0  0  0  0  0  0  0  0999 V2000
   29.9011    9.0553   27.8706 N   0  0  0  0  0  0  0  0  0  0  0  0
   29.9767    9.9378   26.9588 N   0  0  0  0  0  0  0  0  0  0  0  0
   30.8154    9.5934   25.9414 C   0  0  0  0  0  0  0  0  0  0  0  0
   31.4328    8.3457   26.0943 C   0  0  0  0  0  0  0  0  0  0  0  0
   30.7918    7.7503   27.6294 S   0  0  0  0  0  0  0  0  0  0  0  0
   31.0631   10.4496   24.8280 C   0  0  0  0  0  0  0  0  0  0  0  0
   30.0531   10.8858   24.0216 C   0  0  0  0  0  0  0  0  0  0  0  0
   30.2037   11.6661   22.8588 C   0  0  0  0  0  0  0  0  0  0  0  0
   31.4936   12.1305   22.5774 C   0  0  0  0  0  0  0  0  0  0  0  0
   32.4865   11.7502   23.4018 C   0  0  0  0  0  0  0  0  0  0  0  0
   32.3546   10.9380   24.5192 C   0  0  0  0  0  0  0  0  0  0  0  0
   31.7572   12.8266   21.4333 O   0  0  0  0  0  0  0  0  0  0  0  0
   28.7553   10.4606   24.2724 O   0  0  0  0  0  0  0  0  0  0  0  0
   34.1191   12.3981   23.1316 Cl  0  0  0  0  0  0  0  0  0  0  0  0
   31.0547   13.0844   20.8694 H   0  0  0  0  0  0  0  0  0  0  0  0
   28.5716    9.9366   25.0272 H   0  0  0  0  0  0  0  0  0  0  0  0
   32.3232    7.6256   25.2847 C   0  0  0  0  0  0  0  0  0  0  0  0
   33.6837    7.5245   25.5642 C   0  0  0  0  0  0  0  0  0  0  0  0
   34.5367    6.8265   24.6516 C   0  0  0  0  0  0  0  0  0  0  0  0
   33.9895    6.2488   23.4872 C   0  0  0  0  0  0  0  0  0  0  0  0
   32.6652    6.3174   23.2923 C   0  0  0  0  0  0  0  0  0  0  0  0
   31.8311    7.0670   24.1043 C   0  0  0  0  0  0  0  0  0  0  0  0
   34.9635    5.5874   22.7738 O   0  0  0  0  0  0  0  0  0  0  0  0
   35.5722    6.3634   21.7057 C   0  0  0  0  0  0  0  0  0  0  0  0
   35.6384    5.4191   20.5197 C   0  0  0  0  0  0  0  0  0  0  0  0
  1  2  2  0  0  0
  1  5  1  0  0  0
  2  3  1  0  0  0
  3  4  2  0  0  0
  3  6  1  0  0  0
  4 17  1  0  0  0
  4  5  1  0  0  0
  6  7  1  0  0  0
  6 11  2  0  0  0
 17 22  2  0  0  0
 17 18  1  0  0  0
 22 21  1  0  0  0
 21 20  2  0  0  0
 20 19  1  0  0  0
 20 23  1  0  0  0
 19 18  2  0  0  0
  7  8  2  0  0  0
  7 13  1  0  0  0
  8  9  1  0  0  0
  9 10  2  0  0  0
  9 12  1  0  0  0
 10 11  1  0  0  0
 10 14  1  0  0  0
 23 24  1  0  0  0
 24 25  1  0  0  0
 12 15  1  0  0  0
 13 16  1  0  0  0
M  END
> <minimizedAffinity>
-8.67071

$$$$
2YI7_BZ8_A_1225


 25 27  0  0  0  0  0  0  0  0999 V2000
   30.0497    9.7897   27.1618 N   0  0  0  0  0  0  0  0  0  0  0  0
   30.1590    8.6814   27.7749 N   0  0  0  0  0  0  0  0  0  0  0  0
   30.9809    7.7947   27.1462 C   0  0  0  0  0  0  0  0  0  0  0  0
   31.5405    8.2667   25.9523 C   0  0  0  0  0  0  0  0  0  0  0  0
   30.8892    9.9027   25.8064 S   0  0  0  0  0  0  0  0  0  0  0  0
   31.2253    6.4838   27.6518 C   0  0  0  0  0  0  0  0  0  0  0  0
   31.7296    6.2814   28.9030 C   0  0  0  0  0  0  0  0  0  0  0  0
   32.0767    5.0359   29.4616 C   0  0  0  0  0  0  0  0  0  0  0  0
   31.7636    3.9002   28.7061 C   0  0  0  0  0  0  0  0  0  0  0  0
   31.2132    4.0907   27.4932 C   0  0  0  0  0  0  0  0  0  0  0  0
   30.9172    5.3164   26.9139 C   0  0  0  0  0  0  0  0  0  0  0  0
   32.1305    2.6537   29.1239 O   0  0  0  0  0  0  0  0  0  0  0  0
   32.0419    7.3801   29.6925 O   0  0  0  0  0  0  0  0  0  0  0  0
   30.7143    2.6717   26.5470 Cl  0  0  0  0  0  0  0  0  0  0  0  0
   32.5126    2.5372   29.9714 H   0  0  0  0  0  0  0  0  0  0  0  0
   31.8430    8.2449   29.3918 H   0  0  0  0  0  0  0  0  0  0  0  0
   32.4351    7.6947   25.0362 C   0  0  0  0  0  0  0  0  0  0  0  0
   33.8175    7.7585   25.1916 C   0  0  0  0  0  0  0  0  0  0  0  0
   34.6630    7.2072   24.1772 C   0  0  0  0  0  0  0  0  0  0  0  0
   34.0870    6.6052   23.0393 C   0  0  0  0  0  0  0  0  0  0  0  0
   32.7522    6.5110   22.9634 C   0  0  0  0  0  0  0  0  0  0  0  0
   31.9097    7.1193   23.8785 C   0  0  0  0  0  0  0  0  0  0  0  0
   35.0658    6.0988   22.2144 O   0  0  0  0  0  0  0  0  0  0  0  0
   36.1029    5.3379   22.8920 C   0  0  0  0  0  0  0  0  0  0  0  0
   36.7043    4.4481   21.8199 C   0  0  0  0  0  0  0  0  0  0  0  0
  1  2  2  0  0  0
  1  5  1  0  0  0
  2  3  1  0  0  0
  3  4  2  0  0  0
  3  6  1  0  0  0
  4 17  1  0  0  0
  4  5  1  0  0  0
  6  7  1  0  0  0
  6 11  2  0  0  0
 17 22  2  0  0  0
 17 18  1  0  0  0
 22 21  1  0  0  0
 21 20  2  0  0  0
 20 19  1  0  0  0
 20 23  1  0  0  0
 19 18  2  0  0  0
  7  8  2  0  0  0
  7 13  1  0  0  0
  8  9  1  0  0  0
  9 10  2  0  0  0
  9 12  1  0  0  0
 10 11  1  0  0  0
 10 14  1  0  0  0
 23 24  1  0  0  0
 24 25  1  0  0  0
 12 15  1  0  0  0
 13 16  1  0  0  0
M  END
> <minimizedAffinity>
-7.48346

$$$$
2YI7_BZ8_A_1225


 25 27  0  0  0  0  0  0  0  0999 V2000
   33.3774    4.8203   22.7512 N   0  0  0  0  0  0  0  0  0  0  0  0
   33.1615    6.0670   22.6279 N   0  0  0  0  0  0  0  0  0  0  0  0
   32.9506    6.6992   23.8166 C   0  0  0  0  0  0  0  0  0  0  0  0
   33.0067    5.8623   24.9380 C   0  0  0  0  0  0  0  0  0  0  0  0
   33.3570    4.2719   24.2524 S   0  0  0  0  0  0  0  0  0  0  0  0
   32.6677    8.0943   23.9038 C   0  0  0  0  0  0  0  0  0  0  0  0
   33.6361    9.0349   23.7082 C   0  0  0  0  0  0  0  0  0  0  0  0
   33.4749   10.4271   23.8483 C   0  0  0  0  0  0  0  0  0  0  0  0
   32.1761   10.8869   24.0941 C   0  0  0  0  0  0  0  0  0  0  0  0
   31.2047    9.9662   24.2320 C   0  0  0  0  0  0  0  0  0  0  0  0
   31.3652    8.5904   24.1481 C   0  0  0  0  0  0  0  0  0  0  0  0
   31.9292   12.2094   24.3238 O   0  0  0  0  0  0  0  0  0  0  0  0
   34.9364    8.6234   23.4482 O   0  0  0  0  0  0  0  0  0  0  0  0
   29.5287   10.5159   24.4487 Cl  0  0  0  0  0  0  0  0  0  0  0  0
   32.6162   12.8386   24.2235 H   0  0  0  0  0  0  0  0  0  0  0  0
   35.1270    7.7122   23.3416 H   0  0  0  0  0  0  0  0  0  0  0  0
   32.8737    6.1116   26.3117 C   0  0  0  0  0  0  0  0  0  0  0  0
   33.8303    6.8051   27.0486 C   0  0  0  0  0  0  0  0  0  0  0  0
   33.6513    6.9597   28.4599 C   0  0  0  0  0  0  0  0  0  0  0  0
   32.5104    6.4128   29.0831 C   0  0  0  0  0  0  0  0  0  0  0  0
   31.5860    5.8085   28.3237 C   0  0  0  0  0  0  0  0  0  0  0  0
   31.7774    5.5590   26.9753 C   0  0  0  0  0  0  0  0  0  0  0  0
   32.5050    6.7122   30.4267 O   0  0  0  0  0  0  0  0  0  0  0  0
   32.5850    5.5603   31.3101 C   0  0  0  0  0  0  0  0  0  0  0  0
   31.2414    5.5079   32.0135 C   0  0  0  0  0  0  0  0  0  0  0  0
  1  2  2  0  0  0
  1  5  1  0  0  0
  2  3  1  0  0  0
  3  4  2  0  0  0
  3  6  1  0  0  0
  4 17  1  0  0  0
  4  5  1  0  0  0
  6  7  1  0  0  0
  6 11  2  0  0  0
 17 22  2  0  0  0
 17 18  1  0  0  0
 22 21  1  0  0  0
 21 20  2  0  0  0
 20 19  1  0  0  0
 20 23  1  0  0  0
 19 18  2  0  0  0
  7  8  2  0  0  0
  7 13  1  0  0  0
  8  9  1  0  0  0
  9 10  2  0  0  0
  9 12  1  0  0  0
 10 11  1  0  0  0
 10 14  1  0  0  0
 23 24  1  0  0  0
 24 25  1  0  0  0
 12 15  1  0  0  0
 13 16  1  0  0  0
M  END
> <minimizedAffinity>
-7.33914

$$$$
2YI7_BZ8_A_1225


 25 27  0  0  0  0  0  0  0  0999 V2000
   29.9595   10.2600   26.1255 N   0  0  0  0  0  0  0  0  0  0  0  0
   30.7523    9.9268   25.1892 N   0  0  0  0  0  0  0  0  0  0  0  0
   31.5335    8.8539   25.4985 C   0  0  0  0  0  0  0  0  0  0  0  0
   31.3198    8.3294   26.7793 C   0  0  0  0  0  0  0  0  0  0  0  0
   30.0478    9.3603   27.4436 S   0  0  0  0  0  0  0  0  0  0  0  0
   32.5078    8.3295   24.5987 C   0  0  0  0  0  0  0  0  0  0  0  0
   33.5790    9.0698   24.1922 C   0  0  0  0  0  0  0  0  0  0  0  0
   34.5484    8.6714   23.2513 C   0  0  0  0  0  0  0  0  0  0  0  0
   34.4662    7.3545   22.7847 C   0  0  0  0  0  0  0  0  0  0  0  0
   33.4432    6.5999   23.2256 C   0  0  0  0  0  0  0  0  0  0  0  0
   32.4539    7.0021   24.1117 C   0  0  0  0  0  0  0  0  0  0  0  0
   35.3094    6.8978   21.8135 O   0  0  0  0  0  0  0  0  0  0  0  0
   33.7076   10.3773   24.6415 O   0  0  0  0  0  0  0  0  0  0  0  0
   33.3614    4.8952   22.7303 Cl  0  0  0  0  0  0  0  0  0  0  0  0
   36.0173    7.4353   21.5170 H   0  0  0  0  0  0  0  0  0  0  0  0
   33.1013   10.7188   25.2690 H   0  0  0  0  0  0  0  0  0  0  0  0
   31.8828    7.2411   27.4616 C   0  0  0  0  0  0  0  0  0  0  0  0
   33.1357    7.2966   28.0668 C   0  0  0  0  0  0  0  0  0  0  0  0
   33.6676    6.1213   28.6861 C   0  0  0  0  0  0  0  0  0  0  0  0
   32.9167    4.9275   28.6787 C   0  0  0  0  0  0  0  0  0  0  0  0
   31.6897    4.9387   28.1398 C   0  0  0  0  0  0  0  0  0  0  0  0
   31.1897    6.0299   27.4495 C   0  0  0  0  0  0  0  0  0  0  0  0
   33.5816    3.9358   29.3639 O   0  0  0  0  0  0  0  0  0  0  0  0
   34.9067    4.3021   29.8365 C   0  0  0  0  0  0  0  0  0  0  0  0
   35.8080    3.1573   29.4121 C   0  0  0  0  0  0  0  0  0  0  0  0
  1  2  2  0  0  0
  1  5  1  0  0  0
  2  3  1  0  0  0
  3  4  2  0  0  0
  3  6  1  0  0  0
  4 17  1  0  0  0
  4  5  1  0  0  0
  6  7  1  0  0  0
  6 11  2  0  0  0
 17 22  2  0  0  0
 17 18  1  0  0  0
 22 21  1  0  0  0
 21 20  2  0  0  0
 20 19  1  0  0  0
 20 23  1  0  0  0
 19 18  2  0  0  0
  7  8  2  0  0  0
  7 13  1  0  0  0
  8  9  1  0  0  0
  9 10  2  0  0  0
  9 12  1  0  0  0
 10 11  1  0  0  0
 10 14  1  0  0  0
 23 24  1  0  0  0
 24 25  1  0  0  0
 12 15  1  0  0  0
 13 16  1  0  0  0
M  END
> <minimizedAffinity>
-7.18566

$$$$
2YI7_BZ8_A_1225


 25 27  0  0  0  0  0  0  0  0999 V2000
   33.7640    3.9462   22.8404 N   0  0  0  0  0  0  0  0  0  0  0  0
   33.4779    3.8793   24.0773 N   0  0  0  0  0  0  0  0  0  0  0  0
   33.1294    5.0809   24.6172 C   0  0  0  0  0  0  0  0  0  0  0  0
   33.1566    6.1528   23.7163 C   0  0  0  0  0  0  0  0  0  0  0  0
   33.6529    5.4041   22.1948 S   0  0  0  0  0  0  0  0  0  0  0  0
   32.7929    5.2344   25.9947 C   0  0  0  0  0  0  0  0  0  0  0  0
   31.6540    4.6961   26.5178 C   0  0  0  0  0  0  0  0  0  0  0  0
   31.1970    4.8568   27.8403 C   0  0  0  0  0  0  0  0  0  0  0  0
   32.0503    5.5303   28.7218 C   0  0  0  0  0  0  0  0  0  0  0  0
   33.2027    6.0153   28.2249 C   0  0  0  0  0  0  0  0  0  0  0  0
   33.6355    5.9071   26.9109 C   0  0  0  0  0  0  0  0  0  0  0  0
   31.6650    5.8061   30.0017 O   0  0  0  0  0  0  0  0  0  0  0  0
   30.7849    4.0077   25.6819 O   0  0  0  0  0  0  0  0  0  0  0  0
   34.3540    6.7910   29.3344 Cl  0  0  0  0  0  0  0  0  0  0  0  0
   30.8594    5.4609   30.3332 H   0  0  0  0  0  0  0  0  0  0  0  0
   31.0159    3.8590   24.7861 H   0  0  0  0  0  0  0  0  0  0  0  0
   32.8514    7.5143   23.8569 C   0  0  0  0  0  0  0  0  0  0  0  0
   33.8019    8.5203   23.7025 C   0  0  0  0  0  0  0  0  0  0  0  0
   33.4242    9.8820   23.9282 C   0  0  0  0  0  0  0  0  0  0  0  0
   32.0980   10.1865   24.2990 C   0  0  0  0  0  0  0  0  0  0  0  0
   31.2029    9.1917   24.3738 C   0  0  0  0  0  0  0  0  0  0  0  0
   31.5596    7.8589   24.2570 C   0  0  0  0  0  0  0  0  0  0  0  0
   31.9317   11.5476   24.4198 O   0  0  0  0  0  0  0  0  0  0  0  0
   32.2406   12.3100   23.2211 C   0  0  0  0  0  0  0  0  0  0  0  0
   32.8764   13.5936   23.7222 C   0  0  0  0  0  0  0  0  0  0  0  0
  1  2  2  0  0  0
  1  5  1  0  0  0
  2  3  1  0  0  0
  3  4  2  0  0  0
  3  6  1  0  0  0
  4 17  1  0  0  0
  4  5  1  0  0  0
  6  7  1  0  0  0
  6 11  2  0  0  0
 17 22  2  0  0  0
 17 18  1  0  0  0
 22 21  1  0  0  0
 21 20  2  0  0  0
 20 19  1  0  0  0
 20 23  1  0  0  0
 19 18  2  0  0  0
  7  8  2  0  0  0
  7 13  1  0  0  0
  8  9  1  0  0  0
  9 10  2  0  0  0
  9 12  1  0  0  0
 10 11  1  0  0  0
 10 14  1  0  0  0
 23 24  1  0  0  0
 24 25  1  0  0  0
 12 15  1  0  0  0
 13 16  1  0  0  0
M  END
> <minimizedAffinity>
-7.16763

$$$$
2YI7_BZ8_A_1225


 25 27  0  0  0  0  0  0  0  0999 V2000
   33.9359    9.5250   23.4384 N   0  0  0  0  0  0  0  0  0  0  0  0
   34.4985    8.4984   22.9428 N   0  0  0  0  0  0  0  0  0  0  0  0
   34.2003    7.3457   23.6057 C   0  0  0  0  0  0  0  0  0  0  0  0
   33.3420    7.5099   24.7000 C   0  0  0  0  0  0  0  0  0  0  0  0
   33.0123    9.2457   24.7126 S   0  0  0  0  0  0  0  0  0  0  0  0
   34.7433    6.0818   23.2292 C   0  0  0  0  0  0  0  0  0  0  0  0
   34.1310    5.2857   22.3061 C   0  0  0  0  0  0  0  0  0  0  0  0
   34.5443    3.9940   21.9262 C   0  0  0  0  0  0  0  0  0  0  0  0
   35.7566    3.5409   22.4588 C   0  0  0  0  0  0  0  0  0  0  0  0
   36.3951    4.3458   23.3275 C   0  0  0  0  0  0  0  0  0  0  0  0
   35.9676    5.5974   23.7474 C   0  0  0  0  0  0  0  0  0  0  0  0
   36.2032    2.2745   22.2148 O   0  0  0  0  0  0  0  0  0  0  0  0
   32.9327    5.7023   21.7416 O   0  0  0  0  0  0  0  0  0  0  0  0
   37.9830    3.8459   23.9494 Cl  0  0  0  0  0  0  0  0  0  0  0  0
   35.7475    1.7260   21.6070 H   0  0  0  0  0  0  0  0  0  0  0  0
   32.5892    6.5502   21.9444 H   0  0  0  0  0  0  0  0  0  0  0  0
   32.7836    6.5995   25.6089 C   0  0  0  0  0  0  0  0  0  0  0  0
   31.5331    6.0163   25.4203 C   0  0  0  0  0  0  0  0  0  0  0  0
   31.0056    5.1479   26.4280 C   0  0  0  0  0  0  0  0  0  0  0  0
   31.7581    4.8921   27.5930 C   0  0  0  0  0  0  0  0  0  0  0  0
   32.9829    5.4254   27.7017 C   0  0  0  0  0  0  0  0  0  0  0  0
   33.4784    6.3440   26.7919 C   0  0  0  0  0  0  0  0  0  0  0  0
   31.0976    3.9999   28.4071 O   0  0  0  0  0  0  0  0  0  0  0  0
   31.8621    3.5372   29.5539 C   0  0  0  0  0  0  0  0  0  0  0  0
   31.2611    4.2585   30.7462 C   0  0  0  0  0  0  0  0  0  0  0  0
  1  2  2  0  0  0
  1  5  1  0  0  0
  2  3  1  0  0  0
  3  4  2  0  0  0
  3  6  1  0  0  0
  4 17  1  0  0  0
  4  5  1  0  0  0
  6  7  1  0  0  0
  6 11  2  0  0  0
 17 22  2  0  0  0
 17 18  1  0  0  0
 22 21  1  0  0  0
 21 20  2  0  0  0
 20 19  1  0  0  0
 20 23  1  0  0  0
 19 18  2  0  0  0
  7  8  2  0  0  0
  7 13  1  0  0  0
  8  9  1  0  0  0
  9 10  2  0  0  0
  9 12  1  0  0  0
 10 11  1  0  0  0
 10 14  1  0  0  0
 23 24  1  0  0  0
 24 25  1  0  0  0
 12 15  1  0  0  0
 13 16  1  0  0  0
M  END
> <minimizedAffinity>
-7.12421

$$$$
2YI7_BZ8_A_1225


 25 27  0  0  0  0  0  0  0  0999 V2000
   32.0972    3.6759   31.4134 N   0  0  0  0  0  0  0  0  0  0  0  0
   31.9981    4.6109   30.5579 N   0  0  0  0  0  0  0  0  0  0  0  0
   32.8618    4.4804   29.5120 C   0  0  0  0  0  0  0  0  0  0  0  0
   33.6905    3.3535   29.5796 C   0  0  0  0  0  0  0  0  0  0  0  0
   33.1965    2.5641   31.0812 S   0  0  0  0  0  0  0  0  0  0  0  0
   32.9322    5.4319   28.4519 C   0  0  0  0  0  0  0  0  0  0  0  0
   33.7473    6.5234   28.5223 C   0  0  0  0  0  0  0  0  0  0  0  0
   33.8295    7.5552   27.5671 C   0  0  0  0  0  0  0  0  0  0  0  0
   33.0951    7.3795   26.3887 C   0  0  0  0  0  0  0  0  0  0  0  0
   32.3321    6.2759   26.2887 C   0  0  0  0  0  0  0  0  0  0  0  0
   32.2047    5.2810   27.2477 C   0  0  0  0  0  0  0  0  0  0  0  0
   33.0459    8.3571   25.4375 O   0  0  0  0  0  0  0  0  0  0  0  0
   34.5042    6.7299   29.6679 O   0  0  0  0  0  0  0  0  0  0  0  0
   31.4620    5.9716   24.7693 Cl  0  0  0  0  0  0  0  0  0  0  0  0
   33.5836    9.1199   25.5214 H   0  0  0  0  0  0  0  0  0  0  0  0
   34.5035    6.0893   30.3517 H   0  0  0  0  0  0  0  0  0  0  0  0
   34.6751    2.8505   28.7169 C   0  0  0  0  0  0  0  0  0  0  0  0
   36.0156    3.2165   28.8072 C   0  0  0  0  0  0  0  0  0  0  0  0
   36.9469    2.7094   27.8464 C   0  0  0  0  0  0  0  0  0  0  0  0
   36.4970    1.8455   26.8264 C   0  0  0  0  0  0  0  0  0  0  0  0
   35.2102    1.4711   26.8172 C   0  0  0  0  0  0  0  0  0  0  0  0
   34.2689    2.0198   27.6717 C   0  0  0  0  0  0  0  0  0  0  0  0
   37.5513    1.4362   26.0416 O   0  0  0  0  0  0  0  0  0  0  0  0
   38.6201    2.4110   25.8968 C   0  0  0  0  0  0  0  0  0  0  0  0
   38.4949    2.9262   24.4749 C   0  0  0  0  0  0  0  0  0  0  0  0
  1  2  2  0  0  0
  1  5  1  0  0  0
  2  3  1  0  0  0
  3  4  2  0  0  0
  3  6  1  0  0  0
  4 17  1  0  0  0
  4  5  1  0  0  0
  6  7  1  0  0  0
  6 11  2  0  0  0
 17 22  2  0  0  0
 17 18  1  0  0  0
 22 21  1  0  0  0
 21 20  2  0  0  0
 20 19  1  0  0  0
 20 23  1  0  0  0
 19 18  2  0  0  0
  7  8  2  0  0  0
  7 13  1  0  0  0
  8  9  1  0  0  0
  9 10  2  0  0  0
  9 12  1  0  0  0
 10 11  1  0  0  0
 10 14  1  0  0  0
 23 24  1  0  0  0
 24 25  1  0  0  0
 12 15  1  0  0  0
 13 16  1  0  0  0
M  END
> <minimizedAffinity>
-7.10737

$$$$
2YI7_BZ8_A_1225


 25 27  0  0  0  0  0  0  0  0999 V2000
   36.0436    3.3912   19.2253 N   0  0  0  0  0  0  0  0  0  0  0  0
   36.5024    2.9505   20.3260 N   0  0  0  0  0  0  0  0  0  0  0  0
   36.1055    3.6786   21.4073 C   0  0  0  0  0  0  0  0  0  0  0  0
   35.2786    4.7671   21.1033 C   0  0  0  0  0  0  0  0  0  0  0  0
   35.1122    4.6845   19.3461 S   0  0  0  0  0  0  0  0  0  0  0  0
   36.5240    3.3702   22.7354 C   0  0  0  0  0  0  0  0  0  0  0  0
   37.7596    3.7192   23.1960 C   0  0  0  0  0  0  0  0  0  0  0  0
   38.2922    3.3935   24.4585 C   0  0  0  0  0  0  0  0  0  0  0  0
   37.4293    2.7582   25.3588 C   0  0  0  0  0  0  0  0  0  0  0  0
   36.1892    2.4615   24.9295 C   0  0  0  0  0  0  0  0  0  0  0  0
   35.6744    2.7315   23.6694 C   0  0  0  0  0  0  0  0  0  0  0  0
   37.8728    2.3310   26.5768 O   0  0  0  0  0  0  0  0  0  0  0  0
   38.6436    4.3634   22.3406 O   0  0  0  0  0  0  0  0  0  0  0  0
   35.0360    1.7425   26.0746 Cl  0  0  0  0  0  0  0  0  0  0  0  0
   38.7392    2.5458   26.8617 H   0  0  0  0  0  0  0  0  0  0  0  0
   38.3657    4.6138   21.4815 H   0  0  0  0  0  0  0  0  0  0  0  0
   34.6478    5.7288   21.9058 C   0  0  0  0  0  0  0  0  0  0  0  0
   35.2863    6.8899   22.3344 C   0  0  0  0  0  0  0  0  0  0  0  0
   34.5944    7.7890   23.2065 C   0  0  0  0  0  0  0  0  0  0  0  0
   33.2783    7.4904   23.6160 C   0  0  0  0  0  0  0  0  0  0  0  0
   32.6823    6.3937   23.1276 C   0  0  0  0  0  0  0  0  0  0  0  0
   33.3574    5.4576   22.3627 C   0  0  0  0  0  0  0  0  0  0  0  0
   32.7793    8.4995   24.4082 O   0  0  0  0  0  0  0  0  0  0  0  0
   31.3946    8.3280   24.8168 C   0  0  0  0  0  0  0  0  0  0  0  0
   31.1117    9.4898   25.7511 C   0  0  0  0  0  0  0  0  0  0  0  0
  1  2  2  0  0  0
  1  5  1  0  0  0
  2  3  1  0  0  0
  3  4  2  0  0  0
  3  6  1  0  0  0
  4 17  1  0  0  0
  4  5  1  0  0  0
  6  7  1  0  0  0
  6 11  2  0  0  0
 17 22  2  0  0  0
 17 18  1  0  0  0
 22 21  1  0  0  0
 21 20  2  0  0  0
 20 19  1  0  0  0
 20 23  1  0  0  0
 19 18  2  0  0  0
  7  8  2  0  0  0
  7 13  1  0  0  0
  8  9  1  0  0  0
  9 10  2  0  0  0
  9 12  1  0  0  0
 10 11  1  0  0  0
 10 14  1  0  0  0
 23 24  1  0  0  0
 24 25  1  0  0  0
 12 15  1  0  0  0
 13 16  1  0  0  0
M  END
> <minimizedAffinity>
-6.94070

$$$$
2YI7_BZ8_A_1225


 25 27  0  0  0  0  0  0  0  0999 V2000
   31.7700    3.7592   31.2108 N   0  0  0  0  0  0  0  0  0  0  0  0
   31.4142    4.3839   30.1624 N   0  0  0  0  0  0  0  0  0  0  0  0
   32.2478    4.1816   29.1035 C   0  0  0  0  0  0  0  0  0  0  0  0
   33.3311    3.3351   29.3700 C   0  0  0  0  0  0  0  0  0  0  0  0
   33.0983    2.8827   31.0621 S   0  0  0  0  0  0  0  0  0  0  0  0
   32.0451    4.8060   27.8373 C   0  0  0  0  0  0  0  0  0  0  0  0
   31.3217    4.2043   26.8498 C   0  0  0  0  0  0  0  0  0  0  0  0
   31.1310    4.7020   25.5461 C   0  0  0  0  0  0  0  0  0  0  0  0
   31.6309    5.9826   25.2839 C   0  0  0  0  0  0  0  0  0  0  0  0
   32.2972    6.6060   26.2726 C   0  0  0  0  0  0  0  0  0  0  0  0
   32.5351    6.1003   27.5428 C   0  0  0  0  0  0  0  0  0  0  0  0
   31.5667    6.5205   24.0311 O   0  0  0  0  0  0  0  0  0  0  0  0
   30.7956    2.9386   27.0717 O   0  0  0  0  0  0  0  0  0  0  0  0
   32.8618    8.2701   26.0078 Cl  0  0  0  0  0  0  0  0  0  0  0  0
   31.0988    6.0741   23.3530 H   0  0  0  0  0  0  0  0  0  0  0  0
   30.8808    2.5369   27.9140 H   0  0  0  0  0  0  0  0  0  0  0  0
   34.3800    2.8607   28.5691 C   0  0  0  0  0  0  0  0  0  0  0  0
   34.1741    2.0296   27.4709 C   0  0  0  0  0  0  0  0  0  0  0  0
   35.3035    1.5349   26.7447 C   0  0  0  0  0  0  0  0  0  0  0  0
   36.6057    1.8975   27.1472 C   0  0  0  0  0  0  0  0  0  0  0  0
   36.7522    2.7499   28.1710 C   0  0  0  0  0  0  0  0  0  0  0  0
   35.6869    3.1665   28.9512 C   0  0  0  0  0  0  0  0  0  0  0  0
   37.5416    1.3587   26.2935 O   0  0  0  0  0  0  0  0  0  0  0  0
   37.6133    1.9918   24.9867 C   0  0  0  0  0  0  0  0  0  0  0  0
   38.7906    2.9454   25.0740 C   0  0  0  0  0  0  0  0  0  0  0  0
  1  2  2  0  0  0
  1  5  1  0  0  0
  2  3  1  0  0  0
  3  4  2  0  0  0
  3  6  1  0  0  0
  4 17  1  0  0  0
  4  5  1  0  0  0
  6  7  1  0  0  0
  6 11  2  0  0  0
 17 22  2  0  0  0
 17 18  1  0  0  0
 22 21  1  0  0  0
 21 20  2  0  0  0
 20 19  1  0  0  0
 20 23  1  0  0  0
 19 18  2  0  0  0
  7  8  2  0  0  0
  7 13  1  0  0  0
  8  9  1  0  0  0
  9 10  2  0  0  0
  9 12  1  0  0  0
 10 11  1  0  0  0
 10 14  1  0  0  0
 23 24  1  0  0  0
 24 25  1  0  0  0
 12 15  1  0  0  0
 13 16  1  0  0  0
M  END
> <minimizedAffinity>
-6.81233

$$$$
2YI7_BZ8_A_1225


 25 27  0  0  0  0  0  0  0  0999 V2000
   32.3518    6.4750   31.2946 N   0  0  0  0  0  0  0  0  0  0  0  0
   32.4755    7.1750   30.2407 N   0  0  0  0  0  0  0  0  0  0  0  0
   32.2808    6.4648   29.0941 C   0  0  0  0  0  0  0  0  0  0  0  0
   31.9886    5.1096   29.2924 C   0  0  0  0  0  0  0  0  0  0  0  0
   31.9981    4.9355   31.0507 S   0  0  0  0  0  0  0  0  0  0  0  0
   32.3947    7.0518   27.7993 C   0  0  0  0  0  0  0  0  0  0  0  0
   31.5000    7.9794   27.3524 C   0  0  0  0  0  0  0  0  0  0  0  0
   31.4820    8.5570   26.0680 C   0  0  0  0  0  0  0  0  0  0  0  0
   32.5482    8.2355   25.2203 C   0  0  0  0  0  0  0  0  0  0  0  0
   33.4659    7.3637   25.6763 C   0  0  0  0  0  0  0  0  0  0  0  0
   33.4619    6.7496   26.9207 C   0  0  0  0  0  0  0  0  0  0  0  0
   32.5808    8.6804   23.9303 O   0  0  0  0  0  0  0  0  0  0  0  0
   30.4339    8.3383   28.1664 O   0  0  0  0  0  0  0  0  0  0  0  0
   34.8834    7.0062   24.6659 Cl  0  0  0  0  0  0  0  0  0  0  0  0
   31.9345    9.2876   23.6277 H   0  0  0  0  0  0  0  0  0  0  0  0
   30.3730    7.9962   29.0366 H   0  0  0  0  0  0  0  0  0  0  0  0
   31.7033    4.0636   28.4028 C   0  0  0  0  0  0  0  0  0  0  0  0
   30.8066    4.1959   27.3456 C   0  0  0  0  0  0  0  0  0  0  0  0
   30.5204    3.0605   26.5231 C   0  0  0  0  0  0  0  0  0  0  0  0
   31.1511    1.8277   26.7906 C   0  0  0  0  0  0  0  0  0  0  0  0
   32.0540    1.7645   27.7791 C   0  0  0  0  0  0  0  0  0  0  0  0
   32.2786    2.8166   28.6507 C   0  0  0  0  0  0  0  0  0  0  0  0
   30.7782    0.8837   25.8607 O   0  0  0  0  0  0  0  0  0  0  0  0
   30.9703    1.2809   24.4754 C   0  0  0  0  0  0  0  0  0  0  0  0
   29.9123    0.5216   23.6964 C   0  0  0  0  0  0  0  0  0  0  0  0
  1  2  2  0  0  0
  1  5  1  0  0  0
  2  3  1  0  0  0
  3  4  2  0  0  0
  3  6  1  0  0  0
  4 17  1  0  0  0
  4  5  1  0  0  0
  6  7  1  0  0  0
  6 11  2  0  0  0
 17 22  2  0  0  0
 17 18  1  0  0  0
 22 21  1  0  0  0
 21 20  2  0  0  0
 20 19  1  0  0  0
 20 23  1  0  0  0
 19 18  2  0  0  0
  7  8  2  0  0  0
  7 13  1  0  0  0
  8  9  1  0  0  0
  9 10  2  0  0  0
  9 12  1  0  0  0
 10 11  1  0  0  0
 10 14  1  0  0  0
 23 24  1  0  0  0
 24 25  1  0  0  0
 12 15  1  0  0  0
 13 16  1  0  0  0
M  END
> <minimizedAffinity>
-6.75038

$$$$
