1C5Q_ESI_A_246


 17 18  0  0  0  0  0  0  0  0999 V2000
   44.0161   -3.3513   26.3526 C   0  0  0  0  0  0  0  0  0  0  0  0
   44.4623   -1.7121   26.6225 S   0  0  0  0  0  0  0  0  0  0  0  0
   43.9961   -2.0334   28.2416 C   0  0  0  0  0  0  0  0  0  0  0  0
   43.5509   -3.3061   28.4932 C   0  0  0  0  0  0  0  0  0  0  0  0
   43.5261   -4.1777   27.3648 C   0  0  0  0  0  0  0  0  0  0  0  0
   44.0345   -1.1202   29.3019 C   0  0  0  0  0  0  0  0  0  0  0  0
   43.6299   -1.5368   30.5734 C   0  0  0  0  0  0  0  0  0  0  0  0
   43.1709   -2.8503   30.7879 C   0  0  0  0  0  0  0  0  0  0  0  0
   43.1276   -3.7963   29.7301 C   0  0  0  0  0  0  0  0  0  0  0  0
   42.5104   -5.6782   30.2270 I   0  0  0  0  0  0  0  0  0  0  0  0
   44.1128   -3.9619   25.0561 C   0  0  0  0  0  0  0  0  0  0  0  0
   43.5926   -5.1332   24.7410 N   0  0  0  0  0  0  0  0  0  0  0  0
   44.7725   -3.2707   24.1467 N   0  0  0  0  0  0  0  0  0  0  0  0
   43.0997   -5.6511   25.4179 H   0  0  0  0  0  0  0  0  0  0  0  0
   43.6974   -5.4891   23.8291 H   0  0  0  0  0  0  0  0  0  0  0  0
   45.1615   -2.3967   24.3793 H   0  0  0  0  0  0  0  0  0  0  0  0
   44.8760   -3.6288   23.2355 H   0  0  0  0  0  0  0  0  0  0  0  0
 11  1  1  0  0  0
 11 12  1  0  0  0
 11 13  2  0  0  0
  1  2  1  0  0  0
  1  5  2  0  0  0
  2  3  1  0  0  0
  3  4  2  0  0  0
  3  6  1  0  0  0
  4  5  1  0  0  0
  4  9  1  0  0  0
  6  7  2  0  0  0
  7  8  1  0  0  0
  8  9  2  0  0  0
  9 10  1  0  0  0
 12 14  1  0  0  0
 12 15  1  0  0  0
 13 16  1  0  0  0
 13 17  1  0  0  0
M  CHG 1  13   1
M  END
> <minimizedAffinity>
-6.80405

$$$$
1C5Q_ESI_A_246


 17 18  0  0  0  0  0  0  0  0999 V2000
   43.9531   -3.0495   26.8132 C   0  0  0  0  0  0  0  0  0  0  0  0
   44.2574   -1.4332   27.3174 S   0  0  0  0  0  0  0  0  0  0  0  0
   43.7953   -2.0130   28.8642 C   0  0  0  0  0  0  0  0  0  0  0  0
   43.4538   -3.3399   28.9267 C   0  0  0  0  0  0  0  0  0  0  0  0
   43.5185   -4.0452   27.6889 C   0  0  0  0  0  0  0  0  0  0  0  0
   43.7419   -1.2561   30.0406 C   0  0  0  0  0  0  0  0  0  0  0  0
   43.3543   -1.8767   31.2316 C   0  0  0  0  0  0  0  0  0  0  0  0
   43.0030   -3.2398   31.2515 C   0  0  0  0  0  0  0  0  0  0  0  0
   43.0543   -4.0298   30.0729 C   0  0  0  0  0  0  0  0  0  0  0  0
   42.5884   -6.0060   30.2901 I   0  0  0  0  0  0  0  0  0  0  0  0
   44.1196   -3.4640   25.4481 C   0  0  0  0  0  0  0  0  0  0  0  0
   44.0600   -2.6533   24.4083 N   0  0  0  0  0  0  0  0  0  0  0  0
   44.3482   -4.7502   25.2653 N   0  0  0  0  0  0  0  0  0  0  0  0
   43.8896   -1.6929   24.5421 H   0  0  0  0  0  0  0  0  0  0  0  0
   44.1861   -3.0089   23.4990 H   0  0  0  0  0  0  0  0  0  0  0  0
   44.3932   -5.3570   26.0393 H   0  0  0  0  0  0  0  0  0  0  0  0
   44.4739   -5.1033   24.3550 H   0  0  0  0  0  0  0  0  0  0  0  0
 11  1  1  0  0  0
 11 12  1  0  0  0
 11 13  2  0  0  0
  1  2  1  0  0  0
  1  5  2  0  0  0
  2  3  1  0  0  0
  3  4  2  0  0  0
  3  6  1  0  0  0
  4  5  1  0  0  0
  4  9  1  0  0  0
  6  7  2  0  0  0
  7  8  1  0  0  0
  8  9  2  0  0  0
  9 10  1  0  0  0
 12 14  1  0  0  0
 12 15  1  0  0  0
 13 16  1  0  0  0
 13 17  1  0  0  0
M  CHG 1  13   1
M  END
> <minimizedAffinity>
-6.50160

$$$$
1C5Q_ESI_A_246


 17 18  0  0  0  0  0  0  0  0999 V2000
   42.6149   -4.6107   29.6378 C   0  0  0  0  0  0  0  0  0  0  0  0
   42.8590   -3.3413   30.7727 S   0  0  0  0  0  0  0  0  0  0  0  0
   43.5548   -2.5173   29.4389 C   0  0  0  0  0  0  0  0  0  0  0  0
   43.5652   -3.2046   28.2521 C   0  0  0  0  0  0  0  0  0  0  0  0
   43.0069   -4.5159   28.3019 C   0  0  0  0  0  0  0  0  0  0  0  0
   44.0991   -1.2278   29.4658 C   0  0  0  0  0  0  0  0  0  0  0  0
   44.6219   -0.6856   28.2883 C   0  0  0  0  0  0  0  0  0  0  0  0
   44.6213   -1.4278   27.0921 C   0  0  0  0  0  0  0  0  0  0  0  0
   44.0703   -2.7352   27.0380 C   0  0  0  0  0  0  0  0  0  0  0  0
   44.0785   -3.6431   25.2090 I   0  0  0  0  0  0  0  0  0  0  0  0
   41.9993   -5.8543   30.0089 C   0  0  0  0  0  0  0  0  0  0  0  0
   40.7021   -6.0915   29.9547 N   0  0  0  0  0  0  0  0  0  0  0  0
   42.8223   -6.7977   30.4245 N   0  0  0  0  0  0  0  0  0  0  0  0
   40.0857   -5.3890   29.6449 H   0  0  0  0  0  0  0  0  0  0  0  0
   40.3508   -6.9708   30.2240 H   0  0  0  0  0  0  0  0  0  0  0  0
   43.7903   -6.6232   30.4659 H   0  0  0  0  0  0  0  0  0  0  0  0
   42.4685   -7.6762   30.6932 H   0  0  0  0  0  0  0  0  0  0  0  0
 11  1  1  0  0  0
 11 12  1  0  0  0
 11 13  2  0  0  0
  1  2  1  0  0  0
  1  5  2  0  0  0
  2  3  1  0  0  0
  3  4  2  0  0  0
  3  6  1  0  0  0
  4  5  1  0  0  0
  4  9  1  0  0  0
  6  7  2  0  0  0
  7  8  1  0  0  0
  8  9  2  0  0  0
  9 10  1  0  0  0
 12 14  1  0  0  0
 12 15  1  0  0  0
 13 16  1  0  0  0
 13 17  1  0  0  0
M  CHG 1  13   1
M  END
> <minimizedAffinity>
-5.18522

$$$$
1C5Q_ESI_A_246


 17 18  0  0  0  0  0  0  0  0999 V2000
   43.5875   -2.1983   28.4509 C   0  0  0  0  0  0  0  0  0  0  0  0
   43.4968   -3.7633   27.7426 S   0  0  0  0  0  0  0  0  0  0  0  0
   43.1746   -4.2800   29.3461 C   0  0  0  0  0  0  0  0  0  0  0  0
   43.1463   -3.2922   30.2972 C   0  0  0  0  0  0  0  0  0  0  0  0
   43.4041   -1.9748   29.8161 C   0  0  0  0  0  0  0  0  0  0  0  0
   42.9426   -5.6000   29.7505 C   0  0  0  0  0  0  0  0  0  0  0  0
   42.6823   -5.8625   31.0986 C   0  0  0  0  0  0  0  0  0  0  0  0
   42.6708   -4.8206   32.0454 C   0  0  0  0  0  0  0  0  0  0  0  0
   42.8979   -3.4734   31.6592 C   0  0  0  0  0  0  0  0  0  0  0  0
   42.7695   -2.0756   33.1422 I   0  0  0  0  0  0  0  0  0  0  0  0
   43.8716   -1.0261   27.6708 C   0  0  0  0  0  0  0  0  0  0  0  0
   44.0262   -1.0201   26.3601 N   0  0  0  0  0  0  0  0  0  0  0  0
   43.9745    0.1005   28.3491 N   0  0  0  0  0  0  0  0  0  0  0  0
   43.9499   -1.8597   25.8516 H   0  0  0  0  0  0  0  0  0  0  0  0
   44.2179   -0.1761   25.8909 H   0  0  0  0  0  0  0  0  0  0  0  0
   43.8596    0.0987   29.3268 H   0  0  0  0  0  0  0  0  0  0  0  0
   44.1663    0.9432   27.8775 H   0  0  0  0  0  0  0  0  0  0  0  0
 11  1  1  0  0  0
 11 12  1  0  0  0
 11 13  2  0  0  0
  1  2  1  0  0  0
  1  5  2  0  0  0
  2  3  1  0  0  0
  3  4  2  0  0  0
  3  6  1  0  0  0
  4  5  1  0  0  0
  4  9  1  0  0  0
  6  7  2  0  0  0
  7  8  1  0  0  0
  8  9  2  0  0  0
  9 10  1  0  0  0
 12 14  1  0  0  0
 12 15  1  0  0  0
 13 16  1  0  0  0
 13 17  1  0  0  0
M  CHG 1  13   1
M  END
> <minimizedAffinity>
-5.06761

$$$$
1C5Q_ESI_A_246


 17 18  0  0  0  0  0  0  0  0999 V2000
   43.4532   -2.1583   28.7008 C   0  0  0  0  0  0  0  0  0  0  0  0
   43.4503   -3.8785   28.7135 S   0  0  0  0  0  0  0  0  0  0  0  0
   42.0315   -3.6961   29.6599 C   0  0  0  0  0  0  0  0  0  0  0  0
   41.6405   -2.4048   29.9066 C   0  0  0  0  0  0  0  0  0  0  0  0
   42.4815   -1.3962   29.3506 C   0  0  0  0  0  0  0  0  0  0  0  0
   41.2587   -4.7375   30.1870 C   0  0  0  0  0  0  0  0  0  0  0  0
   40.1180   -4.4276   30.9331 C   0  0  0  0  0  0  0  0  0  0  0  0
   39.7557   -3.0881   31.1710 C   0  0  0  0  0  0  0  0  0  0  0  0
   40.5201   -2.0146   30.6427 C   0  0  0  0  0  0  0  0  0  0  0  0
   39.8141   -0.1351   31.0152 I   0  0  0  0  0  0  0  0  0  0  0  0
   44.4721   -1.4048   28.0247 C   0  0  0  0  0  0  0  0  0  0  0  0
   44.9016   -1.6577   26.8026 N   0  0  0  0  0  0  0  0  0  0  0  0
   44.9855   -0.3987   28.7058 N   0  0  0  0  0  0  0  0  0  0  0  0
   44.5199   -2.4080   26.2921 H   0  0  0  0  0  0  0  0  0  0  0  0
   45.6035   -1.0959   26.4014 H   0  0  0  0  0  0  0  0  0  0  0  0
   44.6669   -0.2080   29.6176 H   0  0  0  0  0  0  0  0  0  0  0  0
   45.6874    0.1616   28.3025 H   0  0  0  0  0  0  0  0  0  0  0  0
 11  1  1  0  0  0
 11 12  1  0  0  0
 11 13  2  0  0  0
  1  2  1  0  0  0
  1  5  2  0  0  0
  2  3  1  0  0  0
  3  4  2  0  0  0
  3  6  1  0  0  0
  4  5  1  0  0  0
  4  9  1  0  0  0
  6  7  2  0  0  0
  7  8  1  0  0  0
  8  9  2  0  0  0
  9 10  1  0  0  0
 12 14  1  0  0  0
 12 15  1  0  0  0
 13 16  1  0  0  0
 13 17  1  0  0  0
M  CHG 1  13   1
M  END
> <minimizedAffinity>
-4.91158

$$$$
1C5Q_ESI_A_246


 17 18  0  0  0  0  0  0  0  0999 V2000
   43.0506   -2.5576   28.5174 C   0  0  0  0  0  0  0  0  0  0  0  0
   43.7973   -1.1846   29.2362 S   0  0  0  0  0  0  0  0  0  0  0  0
   42.4537   -1.2284   30.3014 C   0  0  0  0  0  0  0  0  0  0  0  0
   41.5481   -2.2342   30.0790 C   0  0  0  0  0  0  0  0  0  0  0  0
   41.8482   -3.0931   28.9809 C   0  0  0  0  0  0  0  0  0  0  0  0
   42.2149   -0.3394   31.3561 C   0  0  0  0  0  0  0  0  0  0  0  0
   41.0750   -0.5122   32.1465 C   0  0  0  0  0  0  0  0  0  0  0  0
   40.1653   -1.5529   31.8794 C   0  0  0  0  0  0  0  0  0  0  0  0
   40.3880   -2.4704   30.8191 C   0  0  0  0  0  0  0  0  0  0  0  0
   39.0130   -3.9663   30.6164 I   0  0  0  0  0  0  0  0  0  0  0  0
   43.6227   -3.2272   27.3828 C   0  0  0  0  0  0  0  0  0  0  0  0
   43.3532   -4.4716   27.0353 N   0  0  0  0  0  0  0  0  0  0  0  0
   44.4683   -2.5136   26.6646 N   0  0  0  0  0  0  0  0  0  0  0  0
   42.7225   -5.0063   27.5697 H   0  0  0  0  0  0  0  0  0  0  0  0
   43.7828   -4.8652   26.2418 H   0  0  0  0  0  0  0  0  0  0  0  0
   44.6710   -1.5852   26.9218 H   0  0  0  0  0  0  0  0  0  0  0  0
   44.8966   -2.9095   25.8715 H   0  0  0  0  0  0  0  0  0  0  0  0
 11  1  1  0  0  0
 11 12  1  0  0  0
 11 13  2  0  0  0
  1  2  1  0  0  0
  1  5  2  0  0  0
  2  3  1  0  0  0
  3  4  2  0  0  0
  3  6  1  0  0  0
  4  5  1  0  0  0
  4  9  1  0  0  0
  6  7  2  0  0  0
  7  8  1  0  0  0
  8  9  2  0  0  0
  9 10  1  0  0  0
 12 14  1  0  0  0
 12 15  1  0  0  0
 13 16  1  0  0  0
 13 17  1  0  0  0
M  CHG 1  13   1
M  END
> <minimizedAffinity>
-4.64757

$$$$
1C5Q_ESI_A_246


 17 18  0  0  0  0  0  0  0  0999 V2000
   43.2817   -1.6318   32.0799 C   0  0  0  0  0  0  0  0  0  0  0  0
   42.6976   -3.1253   32.7024 S   0  0  0  0  0  0  0  0  0  0  0  0
   42.8031   -3.6468   31.0718 C   0  0  0  0  0  0  0  0  0  0  0  0
   43.2585   -2.7143   30.1751 C   0  0  0  0  0  0  0  0  0  0  0  0
   43.5661   -1.4361   30.7278 C   0  0  0  0  0  0  0  0  0  0  0  0
   42.4698   -4.9204   30.5957 C   0  0  0  0  0  0  0  0  0  0  0  0
   42.6206   -5.1985   29.2342 C   0  0  0  0  0  0  0  0  0  0  0  0
   43.0833   -4.2101   28.3448 C   0  0  0  0  0  0  0  0  0  0  0  0
   43.4329   -2.9129   28.8041 C   0  0  0  0  0  0  0  0  0  0  0  0
   44.1600   -1.6232   27.3979 I   0  0  0  0  0  0  0  0  0  0  0  0
   43.4993   -0.4897   32.9233 C   0  0  0  0  0  0  0  0  0  0  0  0
   42.5383    0.2091   33.4977 N   0  0  0  0  0  0  0  0  0  0  0  0
   44.7601   -0.1513   33.1128 N   0  0  0  0  0  0  0  0  0  0  0  0
   41.5965   -0.0414   33.3579 H   0  0  0  0  0  0  0  0  0  0  0  0
   42.7632    0.9809   34.0660 H   0  0  0  0  0  0  0  0  0  0  0  0
   45.4788   -0.6710   32.6855 H   0  0  0  0  0  0  0  0  0  0  0  0
   44.9824    0.6209   33.6816 H   0  0  0  0  0  0  0  0  0  0  0  0
 11  1  1  0  0  0
 11 12  1  0  0  0
 11 13  2  0  0  0
  1  2  1  0  0  0
  1  5  2  0  0  0
  2  3  1  0  0  0
  3  4  2  0  0  0
  3  6  1  0  0  0
  4  5  1  0  0  0
  4  9  1  0  0  0
  6  7  2  0  0  0
  7  8  1  0  0  0
  8  9  2  0  0  0
  9 10  1  0  0  0
 12 14  1  0  0  0
 12 15  1  0  0  0
 13 16  1  0  0  0
 13 17  1  0  0  0
M  CHG 1  13   1
M  END
> <minimizedAffinity>
-4.49533

$$$$
1C5Q_ESI_A_246


 17 18  0  0  0  0  0  0  0  0999 V2000
   42.9788   -2.2606   29.8963 C   0  0  0  0  0  0  0  0  0  0  0  0
   42.8872   -3.4267   28.6349 S   0  0  0  0  0  0  0  0  0  0  0  0
   42.8765   -4.5616   29.9210 C   0  0  0  0  0  0  0  0  0  0  0  0
   42.9343   -4.0320   31.1849 C   0  0  0  0  0  0  0  0  0  0  0  0
   43.0099   -2.6094   31.2471 C   0  0  0  0  0  0  0  0  0  0  0  0
   42.8137   -5.9534   29.7850 C   0  0  0  0  0  0  0  0  0  0  0  0
   42.8024   -6.7493   30.9341 C   0  0  0  0  0  0  0  0  0  0  0  0
   42.8720   -6.1664   32.2137 C   0  0  0  0  0  0  0  0  0  0  0  0
   42.9310   -4.7574   32.3779 C   0  0  0  0  0  0  0  0  0  0  0  0
   42.9489   -4.0730   34.3016 I   0  0  0  0  0  0  0  0  0  0  0  0
   43.0409   -0.8514   29.6257 C   0  0  0  0  0  0  0  0  0  0  0  0
   43.7629   -0.3060   28.6648 N   0  0  0  0  0  0  0  0  0  0  0  0
   42.3099   -0.0856   30.4126 N   0  0  0  0  0  0  0  0  0  0  0  0
   44.3094   -0.8754   28.0761 H   0  0  0  0  0  0  0  0  0  0  0  0
   43.7551    0.6701   28.5367 H   0  0  0  0  0  0  0  0  0  0  0  0
   41.7705   -0.4900   31.1300 H   0  0  0  0  0  0  0  0  0  0  0  0
   42.3038    0.8902   30.2824 H   0  0  0  0  0  0  0  0  0  0  0  0
 11  1  1  0  0  0
 11 12  1  0  0  0
 11 13  2  0  0  0
  1  2  1  0  0  0
  1  5  2  0  0  0
  2  3  1  0  0  0
  3  4  2  0  0  0
  3  6  1  0  0  0
  4  5  1  0  0  0
  4  9  1  0  0  0
  6  7  2  0  0  0
  7  8  1  0  0  0
  8  9  2  0  0  0
  9 10  1  0  0  0
 12 14  1  0  0  0
 12 15  1  0  0  0
 13 16  1  0  0  0
 13 17  1  0  0  0
M  CHG 1  13   1
M  END
> <minimizedAffinity>
-4.43344

$$$$
1C5Q_ESI_A_246


 17 18  0  0  0  0  0  0  0  0999 V2000
   43.2259   -2.8786   29.3665 C   0  0  0  0  0  0  0  0  0  0  0  0
   43.1935   -1.1712   29.5728 S   0  0  0  0  0  0  0  0  0  0  0  0
   42.9819   -1.5501   31.2322 C   0  0  0  0  0  0  0  0  0  0  0  0
   42.9524   -2.8863   31.5403 C   0  0  0  0  0  0  0  0  0  0  0  0
   43.0879   -3.7712   30.4303 C   0  0  0  0  0  0  0  0  0  0  0  0
   42.8414   -0.6241   32.2727 C   0  0  0  0  0  0  0  0  0  0  0  0
   42.6867   -1.0900   33.5815 C   0  0  0  0  0  0  0  0  0  0  0  0
   42.6528   -2.4707   33.8545 C   0  0  0  0  0  0  0  0  0  0  0  0
   42.7985   -3.4293   32.8174 C   0  0  0  0  0  0  0  0  0  0  0  0
   42.8047   -5.3882   33.3935 I   0  0  0  0  0  0  0  0  0  0  0  0
   43.3863   -3.4853   28.0744 C   0  0  0  0  0  0  0  0  0  0  0  0
   42.8406   -4.6318   27.7143 N   0  0  0  0  0  0  0  0  0  0  0  0
   44.1354   -2.8173   27.2185 N   0  0  0  0  0  0  0  0  0  0  0  0
   42.2811   -5.1323   28.3512 H   0  0  0  0  0  0  0  0  0  0  0  0
   42.9932   -4.9866   26.8087 H   0  0  0  0  0  0  0  0  0  0  0  0
   44.5435   -1.9619   27.4847 H   0  0  0  0  0  0  0  0  0  0  0  0
   44.2864   -3.1743   26.3135 H   0  0  0  0  0  0  0  0  0  0  0  0
 11  1  1  0  0  0
 11 12  1  0  0  0
 11 13  2  0  0  0
  1  2  1  0  0  0
  1  5  2  0  0  0
  2  3  1  0  0  0
  3  4  2  0  0  0
  3  6  1  0  0  0
  4  5  1  0  0  0
  4  9  1  0  0  0
  6  7  2  0  0  0
  7  8  1  0  0  0
  8  9  2  0  0  0
  9 10  1  0  0  0
 12 14  1  0  0  0
 12 15  1  0  0  0
 13 16  1  0  0  0
 13 17  1  0  0  0
M  CHG 1  13   1
M  END
> <minimizedAffinity>
-4.38033

$$$$
1C5Q_ESI_A_246


 17 18  0  0  0  0  0  0  0  0999 V2000
   40.7585   -1.3463   30.8557 C   0  0  0  0  0  0  0  0  0  0  0  0
   40.2416   -2.8368   31.5417 S   0  0  0  0  0  0  0  0  0  0  0  0
   41.3433   -3.5325   30.4262 C   0  0  0  0  0  0  0  0  0  0  0  0
   42.0231   -2.6481   29.6282 C   0  0  0  0  0  0  0  0  0  0  0  0
   41.7039   -1.2732   29.8318 C   0  0  0  0  0  0  0  0  0  0  0  0
   41.5981   -4.9002   30.2709 C   0  0  0  0  0  0  0  0  0  0  0  0
   42.5368   -5.3137   29.3213 C   0  0  0  0  0  0  0  0  0  0  0  0
   43.2070   -4.3739   28.5155 C   0  0  0  0  0  0  0  0  0  0  0  0
   42.9700   -2.9812   28.6577 C   0  0  0  0  0  0  0  0  0  0  0  0
   44.0812   -1.7504   27.4661 I   0  0  0  0  0  0  0  0  0  0  0  0
   40.2319   -0.0842   31.2947 C   0  0  0  0  0  0  0  0  0  0  0  0
   39.6946    0.8196   30.4969 N   0  0  0  0  0  0  0  0  0  0  0  0
   40.3077    0.1467   32.5912 N   0  0  0  0  0  0  0  0  0  0  0  0
   39.6368    0.6496   29.5289 H   0  0  0  0  0  0  0  0  0  0  0  0
   39.3516    1.6637   30.8698 H   0  0  0  0  0  0  0  0  0  0  0  0
   40.7080   -0.5258   33.1884 H   0  0  0  0  0  0  0  0  0  0  0  0
   39.9640    0.9916   32.9616 H   0  0  0  0  0  0  0  0  0  0  0  0
 11  1  1  0  0  0
 11 12  1  0  0  0
 11 13  2  0  0  0
  1  2  1  0  0  0
  1  5  2  0  0  0
  2  3  1  0  0  0
  3  4  2  0  0  0
  3  6  1  0  0  0
  4  5  1  0  0  0
  4  9  1  0  0  0
  6  7  2  0  0  0
  7  8  1  0  0  0
  8  9  2  0  0  0
  9 10  1  0  0  0
 12 14  1  0  0  0
 12 15  1  0  0  0
 13 16  1  0  0  0
 13 17  1  0  0  0
M  CHG 1  13   1
M  END
> <minimizedAffinity>
-4.36603

$$$$
