1I37_DHT_A_201


 22 25  0  0  0  0  0  0  0  0999 V2000
   27.5916    5.1887    4.5435 C   0  0  0  0  0  0  0  0  0  0  0  0
   26.7632    6.4983    4.6717 C   0  0  0  0  0  0  0  0  0  0  0  0
   25.3793    6.3261    4.0844 C   0  0  0  0  0  0  0  0  0  0  0  0
   24.7892    7.3080    3.6273 O   0  0  0  0  0  0  0  0  0  0  0  0
   24.7425    5.0264    4.0523 C   0  0  0  0  0  0  0  0  0  0  0  0
   25.3274    3.9526    4.5143 C   0  0  0  0  0  0  0  0  0  0  0  0
   24.5481    2.6295    4.4641 C   0  0  0  0  0  0  0  0  0  0  0  0
   25.3534    1.4968    3.7742 C   0  0  0  0  0  0  0  0  0  0  0  0
   26.7442    1.3131    4.4209 C   0  0  0  0  0  0  0  0  0  0  0  0
   27.5248    2.6447    4.2743 C   0  0  0  0  0  0  0  0  0  0  0  0
   26.8460    3.8883    4.9921 C   0  0  0  0  0  0  0  0  0  0  0  0
   29.0116    2.4770    4.7140 C   0  0  0  0  0  0  0  0  0  0  0  0
   29.7187    1.2718    4.0260 C   0  0  0  0  0  0  0  0  0  0  0  0
   28.9393   -0.0604    4.2396 C   0  0  0  0  0  0  0  0  0  0  0  0
   27.4895    0.1966    3.6883 C   0  0  0  0  0  0  0  0  0  0  0  0
   26.8444   -1.2305    3.7117 C   0  0  0  0  0  0  0  0  0  0  0  0
   28.0479   -2.1520    3.2861 C   0  0  0  0  0  0  0  0  0  0  0  0
   29.3215   -1.2566    3.3006 C   0  0  0  0  0  0  0  0  0  0  0  0
   30.5714   -2.0160    3.7653 O   0  0  0  0  0  0  0  0  0  0  0  0
   28.9559   -0.4904    5.7529 C   0  0  0  0  0  0  0  0  0  0  0  0
   26.8019    3.7945    6.5756 C   0  0  0  0  0  0  0  0  0  0  0  0
   30.4236   -2.3665    4.6576 H   0  0  0  0  0  0  0  0  0  0  0  0
  1  2  1  0  0  0
  1 11  1  0  0  0
  2  3  1  0  0  0
  3  4  2  0  0  0
  3  5  1  0  0  0
  5  6  1  0  0  0
  6  7  1  0  0  0
  6 11  1  0  0  0
  7  8  1  0  0  0
  8  9  1  0  0  0
  9 10  1  0  0  0
  9 15  1  0  0  0
 10 11  1  0  0  0
 10 12  1  0  0  0
 11 21  1  0  0  0
 12 13  1  0  0  0
 13 14  1  0  0  0
 14 15  1  0  0  0
 14 18  1  0  0  0
 14 20  1  0  0  0
 15 16  1  0  0  0
 16 17  1  0  0  0
 17 18  1  0  0  0
 18 19  1  0  0  0
 19 22  1  0  0  0
M  END
> <minimizedAffinity>
-10.93243

$$$$
1I37_DHT_A_201


 22 25  0  0  0  0  0  0  0  0999 V2000
   27.5562   -0.5257    2.6693 C   0  0  0  0  0  0  0  0  0  0  0  0
   28.1785   -1.9460    2.7833 C   0  0  0  0  0  0  0  0  0  0  0  0
   29.4499   -1.9185    3.6035 C   0  0  0  0  0  0  0  0  0  0  0  0
   30.3262   -2.7599    3.3901 O   0  0  0  0  0  0  0  0  0  0  0  0
   29.6493   -0.9188    4.6314 C   0  0  0  0  0  0  0  0  0  0  0  0
   28.7572    0.0007    4.8910 C   0  0  0  0  0  0  0  0  0  0  0  0
   29.0537    0.9917    6.0270 C   0  0  0  0  0  0  0  0  0  0  0  0
   28.9098    2.4686    5.5734 C   0  0  0  0  0  0  0  0  0  0  0  0
   27.5295    2.7346    4.9329 C   0  0  0  0  0  0  0  0  0  0  0  0
   27.3860    1.8130    3.6943 C   0  0  0  0  0  0  0  0  0  0  0  0
   27.4494    0.2595    4.0185 C   0  0  0  0  0  0  0  0  0  0  0  0
   26.1102    2.1700    2.8717 C   0  0  0  0  0  0  0  0  0  0  0  0
   26.0128    3.6852    2.5242 C   0  0  0  0  0  0  0  0  0  0  0  0
   26.1034    4.5814    3.7957 C   0  0  0  0  0  0  0  0  0  0  0  0
   27.4579    4.1983    4.4960 C   0  0  0  0  0  0  0  0  0  0  0  0
   27.5983    5.2871    5.6133 C   0  0  0  0  0  0  0  0  0  0  0  0
   27.0414    6.5758    4.9008 C   0  0  0  0  0  0  0  0  0  0  0  0
   26.4003    6.1034    3.5629 C   0  0  0  0  0  0  0  0  0  0  0  0
   25.1521    6.9136    3.1884 O   0  0  0  0  0  0  0  0  0  0  0  0
   24.8501    4.3764    4.7243 C   0  0  0  0  0  0  0  0  0  0  0  0
   26.2342   -0.2859    4.8810 C   0  0  0  0  0  0  0  0  0  0  0  0
   24.4932    6.8382    3.8963 H   0  0  0  0  0  0  0  0  0  0  0  0
  1  2  1  0  0  0
  1 11  1  0  0  0
  2  3  1  0  0  0
  3  4  2  0  0  0
  3  5  1  0  0  0
  5  6  1  0  0  0
  6  7  1  0  0  0
  6 11  1  0  0  0
  7  8  1  0  0  0
  8  9  1  0  0  0
  9 10  1  0  0  0
  9 15  1  0  0  0
 10 11  1  0  0  0
 10 12  1  0  0  0
 11 21  1  0  0  0
 12 13  1  0  0  0
 13 14  1  0  0  0
 14 15  1  0  0  0
 14 18  1  0  0  0
 14 20  1  0  0  0
 15 16  1  0  0  0
 16 17  1  0  0  0
 17 18  1  0  0  0
 18 19  1  0  0  0
 19 22  1  0  0  0
M  END
> <minimizedAffinity>
-9.17882

$$$$
