4C1Y_MFB_A_910


 15 15  0  0  0  0  0  0  0  0999 V2000
  -44.2378   16.3214   -9.1635 C   0  0  0  0  0  0  0  0  0  0  0  0
  -42.7765   16.7032   -8.9024 C   0  0  0  0  0  0  0  0  0  0  0  0
  -42.1071   15.9213   -7.7810 C   0  0  0  0  0  0  0  0  0  0  0  0
  -42.3680   14.4303   -7.9314 C   0  0  0  0  0  0  0  0  0  0  0  0
  -43.8884   14.2123   -8.0743 C   0  0  0  0  0  0  0  0  0  0  0  0
  -44.2804   12.7513   -8.1566 C   0  0  0  0  0  0  0  0  0  0  0  0
  -42.6957   18.1047   -8.5802 O   0  0  0  0  0  0  0  0  0  0  0  0
  -40.7134   16.2385   -7.8498 O   0  0  0  0  0  0  0  0  0  0  0  0
  -41.7032   13.9709   -9.1061 O   0  0  0  0  0  0  0  0  0  0  0  0
  -44.3682   14.8886   -9.2515 O   0  0  0  0  0  0  0  0  0  0  0  0
  -43.1814   18.2759   -7.7582 H   0  0  0  0  0  0  0  0  0  0  0  0
  -40.3687   15.9933   -8.7227 H   0  0  0  0  0  0  0  0  0  0  0  0
  -42.0329   14.4598   -9.8763 H   0  0  0  0  0  0  0  0  0  0  0  0
  -44.6289   16.9585  -10.3938 O   0  0  0  0  0  0  0  0  0  0  0  0
  -46.0462   17.2125  -10.4495 C   0  0  0  0  0  0  0  0  0  0  0  0
  1  2  1  0  0  0
  1 14  1  0  0  0
  1 10  1  0  0  0
  2  3  1  0  0  0
  2  7  1  0  0  0
  3  4  1  0  0  0
  3  8  1  0  0  0
  4  5  1  0  0  0
  4  9  1  0  0  0
  5  6  1  0  0  0
  5 10  1  0  0  0
 14 15  1  0  0  0
  7 11  1  0  0  0
  8 12  1  0  0  0
  9 13  1  0  0  0
M  END
> <minimizedAffinity>
-4.96893

$$$$
4C1Y_MFB_A_910


 15 15  0  0  0  0  0  0  0  0999 V2000
  -42.0626   16.7067   -7.3472 C   0  0  0  0  0  0  0  0  0  0  0  0
  -42.1836   15.3962   -8.1329 C   0  0  0  0  0  0  0  0  0  0  0  0
  -43.5712   14.7708   -8.1137 C   0  0  0  0  0  0  0  0  0  0  0  0
  -44.6370   15.8108   -8.4241 C   0  0  0  0  0  0  0  0  0  0  0  0
  -44.4389   17.0115   -7.4763 C   0  0  0  0  0  0  0  0  0  0  0  0
  -45.4935   18.0866   -7.6407 C   0  0  0  0  0  0  0  0  0  0  0  0
  -41.2515   14.4323   -7.6071 O   0  0  0  0  0  0  0  0  0  0  0  0
  -43.5462   13.7139   -9.0780 O   0  0  0  0  0  0  0  0  0  0  0  0
  -44.4765   16.2332   -9.7764 O   0  0  0  0  0  0  0  0  0  0  0  0
  -43.1417   17.5962   -7.6966 O   0  0  0  0  0  0  0  0  0  0  0  0
  -41.4808   14.2296   -6.6867 H   0  0  0  0  0  0  0  0  0  0  0  0
  -43.3207   14.0762   -9.9491 H   0  0  0  0  0  0  0  0  0  0  0  0
  -43.5873   16.6017   -9.8966 H   0  0  0  0  0  0  0  0  0  0  0  0
  -40.7842   17.2813   -7.6760 O   0  0  0  0  0  0  0  0  0  0  0  0
  -40.7084   18.6775   -7.3275 C   0  0  0  0  0  0  0  0  0  0  0  0
  1  2  1  0  0  0
  1 14  1  0  0  0
  1 10  1  0  0  0
  2  3  1  0  0  0
  2  7  1  0  0  0
  3  4  1  0  0  0
  3  8  1  0  0  0
  4  5  1  0  0  0
  4  9  1  0  0  0
  5  6  1  0  0  0
  5 10  1  0  0  0
 14 15  1  0  0  0
  7 11  1  0  0  0
  8 12  1  0  0  0
  9 13  1  0  0  0
M  END
> <minimizedAffinity>
-4.62983

$$$$
4C1Y_MFB_A_910


 15 15  0  0  0  0  0  0  0  0999 V2000
  -40.5724   19.9632   -7.4600 C   0  0  0  0  0  0  0  0  0  0  0  0
  -40.2038   19.4094   -8.8408 C   0  0  0  0  0  0  0  0  0  0  0  0
  -38.7131   19.4143   -9.1490 C   0  0  0  0  0  0  0  0  0  0  0  0
  -37.9193   18.8350   -7.9878 C   0  0  0  0  0  0  0  0  0  0  0  0
  -38.3310   19.5737   -6.6978 C   0  0  0  0  0  0  0  0  0  0  0  0
  -37.5489   19.1325   -5.4777 C   0  0  0  0  0  0  0  0  0  0  0  0
  -40.8735   20.1749   -9.8605 O   0  0  0  0  0  0  0  0  0  0  0  0
  -38.5513   18.6542  -10.3505 O   0  0  0  0  0  0  0  0  0  0  0  0
  -38.2348   17.4495   -7.8709 O   0  0  0  0  0  0  0  0  0  0  0  0
  -39.7344   19.3707   -6.4478 O   0  0  0  0  0  0  0  0  0  0  0  0
  -40.5606   21.0927   -9.8338 H   0  0  0  0  0  0  0  0  0  0  0  0
  -38.8934   17.7568  -10.2140 H   0  0  0  0  0  0  0  0  0  0  0  0
  -39.1881   17.3461   -7.7247 H   0  0  0  0  0  0  0  0  0  0  0  0
  -41.9605   19.6539   -7.2362 O   0  0  0  0  0  0  0  0  0  0  0  0
  -42.1478   18.3115   -6.7470 C   0  0  0  0  0  0  0  0  0  0  0  0
  1  2  1  0  0  0
  1 14  1  0  0  0
  1 10  1  0  0  0
  2  3  1  0  0  0
  2  7  1  0  0  0
  3  4  1  0  0  0
  3  8  1  0  0  0
  4  5  1  0  0  0
  4  9  1  0  0  0
  5  6  1  0  0  0
  5 10  1  0  0  0
 14 15  1  0  0  0
  7 11  1  0  0  0
  8 12  1  0  0  0
  9 13  1  0  0  0
M  END
> <minimizedAffinity>
-4.48871

$$$$
4C1Y_MFB_A_910


 15 15  0  0  0  0  0  0  0  0999 V2000
  -38.5254   18.8273   -7.2451 C   0  0  0  0  0  0  0  0  0  0  0  0
  -38.9405   19.3741   -8.6156 C   0  0  0  0  0  0  0  0  0  0  0  0
  -40.4135   19.1899   -8.9524 C   0  0  0  0  0  0  0  0  0  0  0  0
  -41.2924   19.6259   -7.7900 C   0  0  0  0  0  0  0  0  0  0  0  0
  -40.8096   18.9042   -6.5150 C   0  0  0  0  0  0  0  0  0  0  0  0
  -41.6603   19.2029   -5.2975 C   0  0  0  0  0  0  0  0  0  0  0  0
  -38.1631   18.7332   -9.6447 O   0  0  0  0  0  0  0  0  0  0  0  0
  -40.6525   19.9616  -10.1335 O   0  0  0  0  0  0  0  0  0  0  0  0
  -41.1580   21.0358   -7.6254 O   0  0  0  0  0  0  0  0  0  0  0  0
  -39.4476   19.2757   -6.2320 O   0  0  0  0  0  0  0  0  0  0  0  0
  -38.3568   17.7827   -9.6516 H   0  0  0  0  0  0  0  0  0  0  0  0
  -40.4298   20.8903   -9.9635 H   0  0  0  0  0  0  0  0  0  0  0  0
  -40.2280   21.2546   -7.4578 H   0  0  0  0  0  0  0  0  0  0  0  0
  -37.1918   19.3031   -6.9854 O   0  0  0  0  0  0  0  0  0  0  0  0
  -37.1881   20.6031   -6.3637 C   0  0  0  0  0  0  0  0  0  0  0  0
  1  2  1  0  0  0
  1 14  1  0  0  0
  1 10  1  0  0  0
  2  3  1  0  0  0
  2  7  1  0  0  0
  3  4  1  0  0  0
  3  8  1  0  0  0
  4  5  1  0  0  0
  4  9  1  0  0  0
  5  6  1  0  0  0
  5 10  1  0  0  0
 14 15  1  0  0  0
  7 11  1  0  0  0
  8 12  1  0  0  0
  9 13  1  0  0  0
M  END
> <minimizedAffinity>
-4.36436

$$$$
4C1Y_MFB_A_910


 15 15  0  0  0  0  0  0  0  0999 V2000
  -38.2322   19.1629   -6.8151 C   0  0  0  0  0  0  0  0  0  0  0  0
  -38.1957   19.1879   -8.3472 C   0  0  0  0  0  0  0  0  0  0  0  0
  -39.5213   18.8585   -9.0189 C   0  0  0  0  0  0  0  0  0  0  0  0
  -40.6581   19.6474   -8.3871 C   0  0  0  0  0  0  0  0  0  0  0  0
  -40.6165   19.4271   -6.8609 C   0  0  0  0  0  0  0  0  0  0  0  0
  -41.7527   20.1072   -6.1250 C   0  0  0  0  0  0  0  0  0  0  0  0
  -37.2098   18.2505   -8.8201 O   0  0  0  0  0  0  0  0  0  0  0  0
  -39.3529   19.1650  -10.4065 O   0  0  0  0  0  0  0  0  0  0  0  0
  -40.4665   21.0297   -8.6794 O   0  0  0  0  0  0  0  0  0  0  0  0
  -39.3668   19.9103   -6.3336 O   0  0  0  0  0  0  0  0  0  0  0  0
  -37.4671   17.3521   -8.5605 H   0  0  0  0  0  0  0  0  0  0  0  0
  -39.1160   20.1005  -10.5045 H   0  0  0  0  0  0  0  0  0  0  0  0
  -39.6086   21.3181   -8.3304 H   0  0  0  0  0  0  0  0  0  0  0  0
  -36.9949   19.7350   -6.3524 O   0  0  0  0  0  0  0  0  0  0  0  0
  -37.1758   21.0564   -5.8066 C   0  0  0  0  0  0  0  0  0  0  0  0
  1  2  1  0  0  0
  1 14  1  0  0  0
  1 10  1  0  0  0
  2  3  1  0  0  0
  2  7  1  0  0  0
  3  4  1  0  0  0
  3  8  1  0  0  0
  4  5  1  0  0  0
  4  9  1  0  0  0
  5  6  1  0  0  0
  5 10  1  0  0  0
 14 15  1  0  0  0
  7 11  1  0  0  0
  8 12  1  0  0  0
  9 13  1  0  0  0
M  END
> <minimizedAffinity>
-4.33623

$$$$
4C1Y_MFB_A_910


 15 15  0  0  0  0  0  0  0  0999 V2000
  -44.2168   14.5362   -8.4608 C   0  0  0  0  0  0  0  0  0  0  0  0
  -42.7284   14.7318   -8.1511 C   0  0  0  0  0  0  0  0  0  0  0  0
  -42.1946   16.1242   -8.4564 C   0  0  0  0  0  0  0  0  0  0  0  0
  -43.1178   17.1929   -7.8911 C   0  0  0  0  0  0  0  0  0  0  0  0
  -44.5517   16.9108   -8.3847 C   0  0  0  0  0  0  0  0  0  0  0  0
  -45.5548   17.9575   -7.9452 C   0  0  0  0  0  0  0  0  0  0  0  0
  -41.9516   13.7804   -8.9032 O   0  0  0  0  0  0  0  0  0  0  0  0
  -40.8831   16.1827   -7.8870 O   0  0  0  0  0  0  0  0  0  0  0  0
  -43.0755   17.1203   -6.4678 O   0  0  0  0  0  0  0  0  0  0  0  0
  -44.9856   15.6232   -7.9083 O   0  0  0  0  0  0  0  0  0  0  0  0
  -42.0650   13.9482   -9.8518 H   0  0  0  0  0  0  0  0  0  0  0  0
  -40.9367   16.0128   -6.9336 H   0  0  0  0  0  0  0  0  0  0  0  0
  -43.3523   16.2361   -6.1807 H   0  0  0  0  0  0  0  0  0  0  0  0
  -44.6069   13.2751   -7.8864 O   0  0  0  0  0  0  0  0  0  0  0  0
  -46.0205   13.0294   -8.0199 C   0  0  0  0  0  0  0  0  0  0  0  0
  1  2  1  0  0  0
  1 14  1  0  0  0
  1 10  1  0  0  0
  2  3  1  0  0  0
  2  7  1  0  0  0
  3  4  1  0  0  0
  3  8  1  0  0  0
  4  5  1  0  0  0
  4  9  1  0  0  0
  5  6  1  0  0  0
  5 10  1  0  0  0
 14 15  1  0  0  0
  7 11  1  0  0  0
  8 12  1  0  0  0
  9 13  1  0  0  0
M  END
> <minimizedAffinity>
-4.32369

$$$$
4C1Y_MFB_A_910


 15 15  0  0  0  0  0  0  0  0999 V2000
  -44.3057   14.3544   -8.3321 C   0  0  0  0  0  0  0  0  0  0  0  0
  -45.0930   13.0483   -8.4852 C   0  0  0  0  0  0  0  0  0  0  0  0
  -46.5641   13.1461   -8.1066 C   0  0  0  0  0  0  0  0  0  0  0  0
  -47.2070   14.3667   -8.7474 C   0  0  0  0  0  0  0  0  0  0  0  0
  -46.3521   15.6047   -8.4070 C   0  0  0  0  0  0  0  0  0  0  0  0
  -46.9364   16.9004   -8.9312 C   0  0  0  0  0  0  0  0  0  0  0  0
  -44.4892   12.0245   -7.6718 O   0  0  0  0  0  0  0  0  0  0  0  0
  -47.1696   11.9235   -8.5381 O   0  0  0  0  0  0  0  0  0  0  0  0
  -47.2347   14.1742  -10.1599 O   0  0  0  0  0  0  0  0  0  0  0  0
  -45.0260   15.4427   -8.9441 O   0  0  0  0  0  0  0  0  0  0  0  0
  -44.5463   12.2784   -6.7374 H   0  0  0  0  0  0  0  0  0  0  0  0
  -47.0445   11.8207   -9.4945 H   0  0  0  0  0  0  0  0  0  0  0  0
  -46.3303   14.0472  -10.4867 H   0  0  0  0  0  0  0  0  0  0  0  0
  -43.0267   14.1545   -8.9618 O   0  0  0  0  0  0  0  0  0  0  0  0
  -41.9316   14.3485   -8.0454 C   0  0  0  0  0  0  0  0  0  0  0  0
  1  2  1  0  0  0
  1 14  1  0  0  0
  1 10  1  0  0  0
  2  3  1  0  0  0
  2  7  1  0  0  0
  3  4  1  0  0  0
  3  8  1  0  0  0
  4  5  1  0  0  0
  4  9  1  0  0  0
  5  6  1  0  0  0
  5 10  1  0  0  0
 14 15  1  0  0  0
  7 11  1  0  0  0
  8 12  1  0  0  0
  9 13  1  0  0  0
M  END
> <minimizedAffinity>
-4.30560

$$$$
4C1Y_MFB_A_910


 15 15  0  0  0  0  0  0  0  0999 V2000
  -45.4445   15.2084   -8.6372 C   0  0  0  0  0  0  0  0  0  0  0  0
  -45.1573   16.5777   -9.2631 C   0  0  0  0  0  0  0  0  0  0  0  0
  -43.8741   17.2392   -8.7805 C   0  0  0  0  0  0  0  0  0  0  0  0
  -42.7133   16.2568   -8.8158 C   0  0  0  0  0  0  0  0  0  0  0  0
  -43.1286   14.9823   -8.0524 C   0  0  0  0  0  0  0  0  0  0  0  0
  -42.0210   13.9533   -7.9546 C   0  0  0  0  0  0  0  0  0  0  0  0
  -46.2522   17.4718   -8.9872 O   0  0  0  0  0  0  0  0  0  0  0  0
  -43.6589   18.3653   -9.6369 O   0  0  0  0  0  0  0  0  0  0  0  0
  -42.4350   15.9340  -10.1764 O   0  0  0  0  0  0  0  0  0  0  0  0
  -44.2668   14.3792   -8.6957 O   0  0  0  0  0  0  0  0  0  0  0  0
  -46.3231   17.6105   -8.0298 H   0  0  0  0  0  0  0  0  0  0  0  0
  -43.5913   18.0639  -10.5564 H   0  0  0  0  0  0  0  0  0  0  0  0
  -43.2262   15.5504  -10.5860 H   0  0  0  0  0  0  0  0  0  0  0  0
  -46.5324   14.6242   -9.3771 O   0  0  0  0  0  0  0  0  0  0  0  0
  -46.8295   13.2829   -8.9419 C   0  0  0  0  0  0  0  0  0  0  0  0
  1  2  1  0  0  0
  1 14  1  0  0  0
  1 10  1  0  0  0
  2  3  1  0  0  0
  2  7  1  0  0  0
  3  4  1  0  0  0
  3  8  1  0  0  0
  4  5  1  0  0  0
  4  9  1  0  0  0
  5  6  1  0  0  0
  5 10  1  0  0  0
 14 15  1  0  0  0
  7 11  1  0  0  0
  8 12  1  0  0  0
  9 13  1  0  0  0
M  END
> <minimizedAffinity>
-4.27217

$$$$
4C1Y_MFB_A_910


 15 15  0  0  0  0  0  0  0  0999 V2000
  -46.2224   14.3683   -8.0907 C   0  0  0  0  0  0  0  0  0  0  0  0
  -46.7805   12.9424   -8.0235 C   0  0  0  0  0  0  0  0  0  0  0  0
  -48.1683   12.7753   -8.6259 C   0  0  0  0  0  0  0  0  0  0  0  0
  -48.2467   13.4357   -9.9940 C   0  0  0  0  0  0  0  0  0  0  0  0
  -47.7529   14.8911   -9.8630 C   0  0  0  0  0  0  0  0  0  0  0  0
  -47.8552   15.6783  -11.1533 C   0  0  0  0  0  0  0  0  0  0  0  0
  -46.8343   12.5112   -6.6504 O   0  0  0  0  0  0  0  0  0  0  0  0
  -48.4095   11.3662   -8.6883 O   0  0  0  0  0  0  0  0  0  0  0  0
  -47.4014   12.7192  -10.8912 O   0  0  0  0  0  0  0  0  0  0  0  0
  -46.3828   14.9019   -9.4202 O   0  0  0  0  0  0  0  0  0  0  0  0
  -47.4496   13.0766   -6.1578 H   0  0  0  0  0  0  0  0  0  0  0  0
  -47.7233   10.9443   -9.2287 H   0  0  0  0  0  0  0  0  0  0  0  0
  -46.4918   12.7270  -10.5543 H   0  0  0  0  0  0  0  0  0  0  0  0
  -44.8331   14.2975   -7.7200 O   0  0  0  0  0  0  0  0  0  0  0  0
  -44.1291   13.2657   -8.4386 C   0  0  0  0  0  0  0  0  0  0  0  0
  1  2  1  0  0  0
  1 14  1  0  0  0
  1 10  1  0  0  0
  2  3  1  0  0  0
  2  7  1  0  0  0
  3  4  1  0  0  0
  3  8  1  0  0  0
  4  5  1  0  0  0
  4  9  1  0  0  0
  5  6  1  0  0  0
  5 10  1  0  0  0
 14 15  1  0  0  0
  7 11  1  0  0  0
  8 12  1  0  0  0
  9 13  1  0  0  0
M  END
> <minimizedAffinity>
-4.12044

$$$$
4C1Y_MFB_A_910


 15 15  0  0  0  0  0  0  0  0999 V2000
  -44.9408   16.9083   -7.6991 C   0  0  0  0  0  0  0  0  0  0  0  0
  -44.2020   16.2655   -8.8782 C   0  0  0  0  0  0  0  0  0  0  0  0
  -42.8750   16.9231   -9.2300 C   0  0  0  0  0  0  0  0  0  0  0  0
  -42.0330   17.1423   -7.9822 C   0  0  0  0  0  0  0  0  0  0  0  0
  -42.8885   17.8931   -6.9411 C   0  0  0  0  0  0  0  0  0  0  0  0
  -42.1296   18.2367   -5.6758 C   0  0  0  0  0  0  0  0  0  0  0  0
  -45.0415   16.2992  -10.0479 O   0  0  0  0  0  0  0  0  0  0  0  0
  -42.2361   16.0548  -10.1709 O   0  0  0  0  0  0  0  0  0  0  0  0
  -41.6516   15.8697   -7.4646 O   0  0  0  0  0  0  0  0  0  0  0  0
  -44.0376   17.0989   -6.5920 O   0  0  0  0  0  0  0  0  0  0  0  0
  -45.2152   17.2210  -10.2948 H   0  0  0  0  0  0  0  0  0  0  0  0
  -42.1155   15.1788   -9.7723 H   0  0  0  0  0  0  0  0  0  0  0  0
  -42.4463   15.3526   -7.2599 H   0  0  0  0  0  0  0  0  0  0  0  0
  -46.0225   16.0267   -7.3455 O   0  0  0  0  0  0  0  0  0  0  0  0
  -47.2655   16.7334   -7.1663 C   0  0  0  0  0  0  0  0  0  0  0  0
  1  2  1  0  0  0
  1 14  1  0  0  0
  1 10  1  0  0  0
  2  3  1  0  0  0
  2  7  1  0  0  0
  3  4  1  0  0  0
  3  8  1  0  0  0
  4  5  1  0  0  0
  4  9  1  0  0  0
  5  6  1  0  0  0
  5 10  1  0  0  0
 14 15  1  0  0  0
  7 11  1  0  0  0
  8 12  1  0  0  0
  9 13  1  0  0  0
M  END
> <minimizedAffinity>
-4.10527

$$$$
