3FL5_TXQ_A_338


 24 26  0  0  0  0  0  0  0  0999 V2000
   21.4013    9.2490   18.9003 O   0  0  0  0  0  0  0  0  0  0  0  0
   22.1684    8.2801   18.7110 C   0  0  0  0  0  0  0  0  0  0  0  0
   22.4842    7.3499   19.8435 C   0  0  0  0  0  0  0  0  0  0  0  0
   21.9204    7.5550   21.1086 C   0  0  0  0  0  0  0  0  0  0  0  0
   21.0891    8.6187   21.3125 O   0  0  0  0  0  0  0  0  0  0  0  0
   22.2166    6.6899   22.1620 C   0  0  0  0  0  0  0  0  0  0  0  0
   23.0760    5.6037   21.9502 C   0  0  0  0  0  0  0  0  0  0  0  0
   23.6318    5.3994   20.6843 C   0  0  0  0  0  0  0  0  0  0  0  0
   24.4675    4.3459   20.4643 O   0  0  0  0  0  0  0  0  0  0  0  0
   23.3425    6.2686   19.6317 C   0  0  0  0  0  0  0  0  0  0  0  0
   23.9389    6.0455   18.2774 C   0  0  0  0  0  0  0  0  0  0  0  0
   24.6968    5.0706   18.0753 O   0  0  0  0  0  0  0  0  0  0  0  0
   22.7599    8.0649   17.3619 C   0  0  0  0  0  0  0  0  0  0  0  0
   23.6185    6.9797   17.1571 C   0  0  0  0  0  0  0  0  0  0  0  0
   22.4693    8.9401   16.3044 C   0  0  0  0  0  0  0  0  0  0  0  0
   23.0314    8.7170   15.0372 C   0  0  0  0  0  0  0  0  0  0  0  0
   23.8833    7.6275   14.8406 C   0  0  0  0  0  0  0  0  0  0  0  0
   24.4411    7.3860   13.6205 O   0  0  0  0  0  0  0  0  0  0  0  0
   24.1695    6.7643   15.8913 C   0  0  0  0  0  0  0  0  0  0  0  0
   25.0015    5.7096   15.6855 O   0  0  0  0  0  0  0  0  0  0  0  0
   20.8899    9.2000   20.6050 H   0  0  0  0  0  0  0  0  0  0  0  0
   24.6699    3.7547   21.1626 H   0  0  0  0  0  0  0  0  0  0  0  0
   24.2591    7.9577   12.9007 H   0  0  0  0  0  0  0  0  0  0  0  0
   25.1985    5.1239   16.3898 H   0  0  0  0  0  0  0  0  0  0  0  0
  1  2  2  0  0  0
  2  3  1  0  0  0
  2 13  1  0  0  0
  3  4  2  0  0  0
  3 10  1  0  0  0
  4  5  1  0  0  0
  4  6  1  0  0  0
  6  7  2  0  0  0
  7  8  1  0  0  0
  8  9  1  0  0  0
  8 10  2  0  0  0
 10 11  1  0  0  0
 11 12  2  0  0  0
 11 14  1  0  0  0
 13 14  2  0  0  0
 13 15  1  0  0  0
 14 19  1  0  0  0
 15 16  2  0  0  0
 16 17  1  0  0  0
 17 18  1  0  0  0
 17 19  2  0  0  0
 19 20  1  0  0  0
  5 21  1  0  0  0
  9 22  1  0  0  0
 18 23  1  0  0  0
 20 24  1  0  0  0
M  END
> <minimizedAffinity>
-12.68149

$$$$
3FL5_TXQ_A_338


 24 26  0  0  0  0  0  0  0  0999 V2000
   24.7573    5.0102   17.8211 O   0  0  0  0  0  0  0  0  0  0  0  0
   24.0039    5.9600   18.1263 C   0  0  0  0  0  0  0  0  0  0  0  0
   23.6482    6.9876   17.0943 C   0  0  0  0  0  0  0  0  0  0  0  0
   24.1483    6.8865   15.7903 C   0  0  0  0  0  0  0  0  0  0  0  0
   24.9768    5.8517   15.4638 O   0  0  0  0  0  0  0  0  0  0  0  0
   23.8182    7.8445   14.8317 C   0  0  0  0  0  0  0  0  0  0  0  0
   22.9734    8.9090   15.1731 C   0  0  0  0  0  0  0  0  0  0  0  0
   22.4719    9.0026   16.4742 C   0  0  0  0  0  0  0  0  0  0  0  0
   21.6478   10.0316   16.8188 O   0  0  0  0  0  0  0  0  0  0  0  0
   22.8076    8.0493   17.4363 C   0  0  0  0  0  0  0  0  0  0  0  0
   22.2674    8.1528   18.8281 C   0  0  0  0  0  0  0  0  0  0  0  0
   21.5016    9.0923   19.1387 O   0  0  0  0  0  0  0  0  0  0  0  0
   23.4714    6.0581   19.5130 C   0  0  0  0  0  0  0  0  0  0  0  0
   22.6298    7.1241   19.8482 C   0  0  0  0  0  0  0  0  0  0  0  0
   23.8105    5.0997   20.4800 C   0  0  0  0  0  0  0  0  0  0  0  0
   23.2929    5.2053   21.7810 C   0  0  0  0  0  0  0  0  0  0  0  0
   22.4489    6.2701   22.1053 C   0  0  0  0  0  0  0  0  0  0  0  0
   21.9306    6.3959   23.3598 O   0  0  0  0  0  0  0  0  0  0  0  0
   22.1171    7.2178   21.1446 C   0  0  0  0  0  0  0  0  0  0  0  0
   21.2962    8.2492   21.4752 O   0  0  0  0  0  0  0  0  0  0  0  0
   25.1986    5.2080   16.1076 H   0  0  0  0  0  0  0  0  0  0  0  0
   21.4146   10.6784   16.1823 H   0  0  0  0  0  0  0  0  0  0  0  0
   22.1436    5.7661   24.0200 H   0  0  0  0  0  0  0  0  0  0  0  0
   21.0686    8.8916   20.8321 H   0  0  0  0  0  0  0  0  0  0  0  0
  1  2  2  0  0  0
  2  3  1  0  0  0
  2 13  1  0  0  0
  3  4  2  0  0  0
  3 10  1  0  0  0
  4  5  1  0  0  0
  4  6  1  0  0  0
  6  7  2  0  0  0
  7  8  1  0  0  0
  8  9  1  0  0  0
  8 10  2  0  0  0
 10 11  1  0  0  0
 11 12  2  0  0  0
 11 14  1  0  0  0
 13 14  2  0  0  0
 13 15  1  0  0  0
 14 19  1  0  0  0
 15 16  2  0  0  0
 16 17  1  0  0  0
 17 18  1  0  0  0
 17 19  2  0  0  0
 19 20  1  0  0  0
  5 21  1  0  0  0
  9 22  1  0  0  0
 18 23  1  0  0  0
 20 24  1  0  0  0
M  END
> <minimizedAffinity>
-12.28431

$$$$
3FL5_TXQ_A_338


 24 26  0  0  0  0  0  0  0  0999 V2000
   21.5057    9.2720   18.8297 O   0  0  0  0  0  0  0  0  0  0  0  0
   22.2471    8.2898   18.6088 C   0  0  0  0  0  0  0  0  0  0  0  0
   22.8332    8.0934   17.2429 C   0  0  0  0  0  0  0  0  0  0  0  0
   22.5615    9.0059   16.2162 C   0  0  0  0  0  0  0  0  0  0  0  0
   21.7453   10.0728   16.4602 O   0  0  0  0  0  0  0  0  0  0  0  0
   23.1057    8.8208   14.9453 C   0  0  0  0  0  0  0  0  0  0  0  0
   23.9370    7.7204   14.6974 C   0  0  0  0  0  0  0  0  0  0  0  0
   24.2102    6.8154   15.7267 C   0  0  0  0  0  0  0  0  0  0  0  0
   25.0185    5.7423   15.4995 O   0  0  0  0  0  0  0  0  0  0  0  0
   23.6600    6.9951   16.9964 C   0  0  0  0  0  0  0  0  0  0  0  0
   23.9561    6.0243   18.0962 C   0  0  0  0  0  0  0  0  0  0  0  0
   24.7080    5.0461   17.8878 O   0  0  0  0  0  0  0  0  0  0  0  0
   22.5361    7.3268   19.7066 C   0  0  0  0  0  0  0  0  0  0  0  0
   23.3654    6.2293   19.4524 C   0  0  0  0  0  0  0  0  0  0  0  0
   21.9815    7.5077   20.9827 C   0  0  0  0  0  0  0  0  0  0  0  0
   22.2711    6.5924   22.0073 C   0  0  0  0  0  0  0  0  0  0  0  0
   23.1046    5.5024   21.7458 C   0  0  0  0  0  0  0  0  0  0  0  0
   23.4041    4.5997   22.7224 O   0  0  0  0  0  0  0  0  0  0  0  0
   23.6504    5.3264   20.4800 C   0  0  0  0  0  0  0  0  0  0  0  0
   24.4582    4.2602   20.2399 O   0  0  0  0  0  0  0  0  0  0  0  0
   21.3796   10.1973   17.3139 H   0  0  0  0  0  0  0  0  0  0  0  0
   25.3943    5.6101   14.6514 H   0  0  0  0  0  0  0  0  0  0  0  0
   23.0450    4.7027   23.5817 H   0  0  0  0  0  0  0  0  0  0  0  0
   24.8293    4.1359   19.3886 H   0  0  0  0  0  0  0  0  0  0  0  0
  1  2  2  0  0  0
  2  3  1  0  0  0
  2 13  1  0  0  0
  3  4  2  0  0  0
  3 10  1  0  0  0
  4  5  1  0  0  0
  4  6  1  0  0  0
  6  7  2  0  0  0
  7  8  1  0  0  0
  8  9  1  0  0  0
  8 10  2  0  0  0
 10 11  1  0  0  0
 11 12  2  0  0  0
 11 14  1  0  0  0
 13 14  2  0  0  0
 13 15  1  0  0  0
 14 19  1  0  0  0
 15 16  2  0  0  0
 16 17  1  0  0  0
 17 18  1  0  0  0
 17 19  2  0  0  0
 19 20  1  0  0  0
  5 21  1  0  0  0
  9 22  1  0  0  0
 18 23  1  0  0  0
 20 24  1  0  0  0
M  END
> <minimizedAffinity>
-12.03128

$$$$
3FL5_TXQ_A_338


 24 26  0  0  0  0  0  0  0  0999 V2000
   24.2842    4.6757   19.9315 O   0  0  0  0  0  0  0  0  0  0  0  0
   23.7085    5.7008   19.5062 C   0  0  0  0  0  0  0  0  0  0  0  0
   22.8433    6.5045   20.4298 C   0  0  0  0  0  0  0  0  0  0  0  0
   22.6818    6.1187   21.7661 C   0  0  0  0  0  0  0  0  0  0  0  0
   23.3065    4.9943   22.2240 O   0  0  0  0  0  0  0  0  0  0  0  0
   21.8749    6.8662   22.6239 C   0  0  0  0  0  0  0  0  0  0  0  0
   21.2299    8.0154   22.1478 C   0  0  0  0  0  0  0  0  0  0  0  0
   21.3987    8.4000   20.8149 C   0  0  0  0  0  0  0  0  0  0  0  0
   20.7787    9.5165   20.3398 O   0  0  0  0  0  0  0  0  0  0  0  0
   22.1993    7.6487   19.9537 C   0  0  0  0  0  0  0  0  0  0  0  0
   22.3783    8.0648   18.5274 C   0  0  0  0  0  0  0  0  0  0  0  0
   21.8171    9.0968   18.0968 O   0  0  0  0  0  0  0  0  0  0  0  0
   23.8892    6.1081   18.0858 C   0  0  0  0  0  0  0  0  0  0  0  0
   23.2413    7.2555   17.6160 C   0  0  0  0  0  0  0  0  0  0  0  0
   24.6935    5.3513   17.2203 C   0  0  0  0  0  0  0  0  0  0  0  0
   24.8573    5.7552   15.8855 C   0  0  0  0  0  0  0  0  0  0  0  0
   24.2109    6.9053   15.4266 C   0  0  0  0  0  0  0  0  0  0  0  0
   24.3540    7.3215   14.1364 O   0  0  0  0  0  0  0  0  0  0  0  0
   23.4140    7.6508   16.2870 C   0  0  0  0  0  0  0  0  0  0  0  0
   22.7899    8.7665   15.8259 O   0  0  0  0  0  0  0  0  0  0  0  0
   23.8486    4.4920   21.6480 H   0  0  0  0  0  0  0  0  0  0  0  0
   20.2383   10.0298   20.9076 H   0  0  0  0  0  0  0  0  0  0  0  0
   24.8875    6.8311   13.5424 H   0  0  0  0  0  0  0  0  0  0  0  0
   22.2512    9.2735   16.4010 H   0  0  0  0  0  0  0  0  0  0  0  0
  1  2  2  0  0  0
  2  3  1  0  0  0
  2 13  1  0  0  0
  3  4  2  0  0  0
  3 10  1  0  0  0
  4  5  1  0  0  0
  4  6  1  0  0  0
  6  7  2  0  0  0
  7  8  1  0  0  0
  8  9  1  0  0  0
  8 10  2  0  0  0
 10 11  1  0  0  0
 11 12  2  0  0  0
 11 14  1  0  0  0
 13 14  2  0  0  0
 13 15  1  0  0  0
 14 19  1  0  0  0
 15 16  2  0  0  0
 16 17  1  0  0  0
 17 18  1  0  0  0
 17 19  2  0  0  0
 19 20  1  0  0  0
  5 21  1  0  0  0
  9 22  1  0  0  0
 18 23  1  0  0  0
 20 24  1  0  0  0
M  END
> <minimizedAffinity>
-11.48669

$$$$
3FL5_TXQ_A_338


 24 26  0  0  0  0  0  0  0  0999 V2000
   24.5956    4.6928   18.7539 O   0  0  0  0  0  0  0  0  0  0  0  0
   23.8787    5.7162   18.7940 C   0  0  0  0  0  0  0  0  0  0  0  0
   23.2054    6.1021   20.0767 C   0  0  0  0  0  0  0  0  0  0  0  0
   23.3799    5.3283   21.2305 C   0  0  0  0  0  0  0  0  0  0  0  0
   24.1576    4.2073   21.1799 O   0  0  0  0  0  0  0  0  0  0  0  0
   22.7511    5.6872   22.4228 C   0  0  0  0  0  0  0  0  0  0  0  0
   21.9479    6.8345   22.4684 C   0  0  0  0  0  0  0  0  0  0  0  0
   21.7813    7.6071   21.3158 C   0  0  0  0  0  0  0  0  0  0  0  0
   21.0046    8.7262   21.3471 O   0  0  0  0  0  0  0  0  0  0  0  0
   22.4034    7.2448   20.1205 C   0  0  0  0  0  0  0  0  0  0  0  0
   22.2233    8.0756   18.8889 C   0  0  0  0  0  0  0  0  0  0  0  0
   21.5188    9.1091   18.9234 O   0  0  0  0  0  0  0  0  0  0  0  0
   23.7021    6.5373   17.5649 C   0  0  0  0  0  0  0  0  0  0  0  0
   22.8976    7.6807   17.6163 C   0  0  0  0  0  0  0  0  0  0  0  0
   24.3270    6.1715   16.3631 C   0  0  0  0  0  0  0  0  0  0  0  0
   24.1541    6.9623   15.2158 C   0  0  0  0  0  0  0  0  0  0  0  0
   23.3534    8.1053   15.2779 C   0  0  0  0  0  0  0  0  0  0  0  0
   23.1699    8.8923   14.1801 O   0  0  0  0  0  0  0  0  0  0  0  0
   22.7352    8.4628   16.4700 C   0  0  0  0  0  0  0  0  0  0  0  0
   21.9576    9.5766   16.5148 O   0  0  0  0  0  0  0  0  0  0  0  0
   24.5801    3.9659   20.3791 H   0  0  0  0  0  0  0  0  0  0  0  0
   20.5813    8.9806   22.1433 H   0  0  0  0  0  0  0  0  0  0  0  0
   23.5792    8.6664   13.3680 H   0  0  0  0  0  0  0  0  0  0  0  0
   21.5380    9.8231   17.3155 H   0  0  0  0  0  0  0  0  0  0  0  0
  1  2  2  0  0  0
  2  3  1  0  0  0
  2 13  1  0  0  0
  3  4  2  0  0  0
  3 10  1  0  0  0
  4  5  1  0  0  0
  4  6  1  0  0  0
  6  7  2  0  0  0
  7  8  1  0  0  0
  8  9  1  0  0  0
  8 10  2  0  0  0
 10 11  1  0  0  0
 11 12  2  0  0  0
 11 14  1  0  0  0
 13 14  2  0  0  0
 13 15  1  0  0  0
 14 19  1  0  0  0
 15 16  2  0  0  0
 16 17  1  0  0  0
 17 18  1  0  0  0
 17 19  2  0  0  0
 19 20  1  0  0  0
  5 21  1  0  0  0
  9 22  1  0  0  0
 18 23  1  0  0  0
 20 24  1  0  0  0
M  END
> <minimizedAffinity>
-11.05058

$$$$
3FL5_TXQ_A_338


 24 26  0  0  0  0  0  0  0  0999 V2000
   21.4216    9.7188   16.9689 O   0  0  0  0  0  0  0  0  0  0  0  0
   22.0681    8.7410   17.4035 C   0  0  0  0  0  0  0  0  0  0  0  0
   22.9887    7.9923   16.4873 C   0  0  0  0  0  0  0  0  0  0  0  0
   23.1342    8.3852   15.1512 C   0  0  0  0  0  0  0  0  0  0  0  0
   22.4203    9.4490   14.6792 O   0  0  0  0  0  0  0  0  0  0  0  0
   23.9895    7.6864   14.2992 C   0  0  0  0  0  0  0  0  0  0  0  0
   24.7147    6.5908   14.7860 C   0  0  0  0  0  0  0  0  0  0  0  0
   24.5708    6.2058   16.1218 C   0  0  0  0  0  0  0  0  0  0  0  0
   25.2717    5.1434   16.6083 O   0  0  0  0  0  0  0  0  0  0  0  0
   23.7096    6.8991   16.9730 C   0  0  0  0  0  0  0  0  0  0  0  0
   23.5594    6.4843   18.4031 C   0  0  0  0  0  0  0  0  0  0  0  0
   24.2129    5.5155   18.8502 O   0  0  0  0  0  0  0  0  0  0  0  0
   21.9127    8.3324   18.8265 C   0  0  0  0  0  0  0  0  0  0  0  0
   22.6382    7.2366   19.3062 C   0  0  0  0  0  0  0  0  0  0  0  0
   21.0456    9.0294   19.6814 C   0  0  0  0  0  0  0  0  0  0  0  0
   20.9174    8.6332   21.0224 C   0  0  0  0  0  0  0  0  0  0  0  0
   21.6499    7.5412   21.4940 C   0  0  0  0  0  0  0  0  0  0  0  0
   21.5463    7.1363   22.7915 O   0  0  0  0  0  0  0  0  0  0  0  0
   22.5063    6.8530   20.6432 C   0  0  0  0  0  0  0  0  0  0  0  0
   23.2111    5.7914   21.1157 O   0  0  0  0  0  0  0  0  0  0  0  0
   21.8457    9.9186   15.2513 H   0  0  0  0  0  0  0  0  0  0  0  0
   25.8534    4.6693   16.0472 H   0  0  0  0  0  0  0  0  0  0  0  0
   20.9737    7.5887   23.3792 H   0  0  0  0  0  0  0  0  0  0  0  0
   23.7903    5.3230   20.5471 H   0  0  0  0  0  0  0  0  0  0  0  0
  1  2  2  0  0  0
  2  3  1  0  0  0
  2 13  1  0  0  0
  3  4  2  0  0  0
  3 10  1  0  0  0
  4  5  1  0  0  0
  4  6  1  0  0  0
  6  7  2  0  0  0
  7  8  1  0  0  0
  8  9  1  0  0  0
  8 10  2  0  0  0
 10 11  1  0  0  0
 11 12  2  0  0  0
 11 14  1  0  0  0
 13 14  2  0  0  0
 13 15  1  0  0  0
 14 19  1  0  0  0
 15 16  2  0  0  0
 16 17  1  0  0  0
 17 18  1  0  0  0
 17 19  2  0  0  0
 19 20  1  0  0  0
  5 21  1  0  0  0
  9 22  1  0  0  0
 18 23  1  0  0  0
 20 24  1  0  0  0
M  END
> <minimizedAffinity>
-10.16669

$$$$
