3UZJ_0CT_A_301


 10 11  0  0  0  0  0  0  0  0999 V2000
   -3.0468   37.9715  -14.5713 N   0  0  0  0  0  0  0  0  0  0  0  0
   -2.3266   36.9755  -15.1180 C   0  0  0  0  0  0  0  0  0  0  0  0
   -1.2074   36.2975  -14.7052 C   0  0  0  0  0  0  0  0  0  0  0  0
   -0.5542   35.3225  -15.4090 C   0  0  0  0  0  0  0  0  0  0  0  0
   -1.1201   35.0393  -16.6556 C   0  0  0  0  0  0  0  0  0  0  0  0
   -2.3094   35.7031  -17.1360 C   0  0  0  0  0  0  0  0  0  0  0  0
   -2.8896   36.6961  -16.3502 C   0  0  0  0  0  0  0  0  0  0  0  0
   -3.9190   37.5351  -16.4410 N   0  0  0  0  0  0  0  0  0  0  0  0
   -3.9390   38.2623  -15.4058 N   0  0  0  0  0  0  0  0  0  0  0  0
   -2.9029   38.3894  -13.6916 H   0  0  0  0  0  0  0  0  0  0  0  0
  1  9  1  0  0  0
  1  2  1  0  0  0
  3  2  2  0  0  0
  3  4  1  0  0  0
  9  8  2  0  0  0
  2  7  1  0  0  0
  4  5  2  0  0  0
  8  7  1  0  0  0
  7  6  2  0  0  0
  5  6  1  0  0  0
  1 10  1  0  0  0
M  END
> <minimizedAffinity>
-6.29888

$$$$
3UZJ_0CT_A_301


 10 11  0  0  0  0  0  0  0  0999 V2000
   -1.3039   34.6672  -17.6280 N   0  0  0  0  0  0  0  0  0  0  0  0
   -1.8347   35.5698  -16.7835 C   0  0  0  0  0  0  0  0  0  0  0  0
   -2.9196   36.4051  -16.8714 C   0  0  0  0  0  0  0  0  0  0  0  0
   -3.3100   37.3161  -15.9278 C   0  0  0  0  0  0  0  0  0  0  0  0
   -2.4877   37.3587  -14.7981 C   0  0  0  0  0  0  0  0  0  0  0  0
   -1.3450   36.4902  -14.6377 C   0  0  0  0  0  0  0  0  0  0  0  0
   -1.0204   35.6086  -15.6661 C   0  0  0  0  0  0  0  0  0  0  0  0
   -0.0709   34.7102  -15.9178 N   0  0  0  0  0  0  0  0  0  0  0  0
   -0.2685   34.2268  -17.0702 N   0  0  0  0  0  0  0  0  0  0  0  0
   -1.6570   34.4041  -18.5085 H   0  0  0  0  0  0  0  0  0  0  0  0
  1  9  1  0  0  0
  1  2  1  0  0  0
  3  2  2  0  0  0
  3  4  1  0  0  0
  9  8  2  0  0  0
  2  7  1  0  0  0
  4  5  2  0  0  0
  8  7  1  0  0  0
  7  6  2  0  0  0
  5  6  1  0  0  0
  1 10  1  0  0  0
M  END
> <minimizedAffinity>
-6.16360

$$$$
3UZJ_0CT_A_301


 10 11  0  0  0  0  0  0  0  0999 V2000
   -0.0240   34.8111  -15.5670 N   0  0  0  0  0  0  0  0  0  0  0  0
   -1.0587   35.6691  -15.6187 C   0  0  0  0  0  0  0  0  0  0  0  0
   -1.5349   36.6111  -14.7421 C   0  0  0  0  0  0  0  0  0  0  0  0
   -2.6473   37.3872  -14.9236 C   0  0  0  0  0  0  0  0  0  0  0  0
   -3.3213   37.1499  -16.1252 C   0  0  0  0  0  0  0  0  0  0  0  0
   -2.8576   36.1878  -17.0974 C   0  0  0  0  0  0  0  0  0  0  0  0
   -1.7227   35.4335  -16.8090 C   0  0  0  0  0  0  0  0  0  0  0  0
   -1.0228   34.4622  -17.3912 N   0  0  0  0  0  0  0  0  0  0  0  0
   -0.0802   34.1251  -16.6174 N   0  0  0  0  0  0  0  0  0  0  0  0
    0.6446   34.7358  -14.8483 H   0  0  0  0  0  0  0  0  0  0  0  0
  1  9  1  0  0  0
  1  2  1  0  0  0
  3  2  2  0  0  0
  3  4  1  0  0  0
  9  8  2  0  0  0
  2  7  1  0  0  0
  4  5  2  0  0  0
  8  7  1  0  0  0
  7  6  2  0  0  0
  5  6  1  0  0  0
  1 10  1  0  0  0
M  END
> <minimizedAffinity>
-6.06002

$$$$
3UZJ_0CT_A_301


 10 11  0  0  0  0  0  0  0  0999 V2000
   -0.1143   34.4693  -17.5027 N   0  0  0  0  0  0  0  0  0  0  0  0
    0.3123   34.7500  -16.2582 C   0  0  0  0  0  0  0  0  0  0  0  0
    1.4477   34.4174  -15.5634 C   0  0  0  0  0  0  0  0  0  0  0  0
    1.7190   34.7473  -14.2633 C   0  0  0  0  0  0  0  0  0  0  0  0
    0.7094   35.4838  -13.6367 C   0  0  0  0  0  0  0  0  0  0  0  0
   -0.4981   35.8826  -14.3212 C   0  0  0  0  0  0  0  0  0  0  0  0
   -0.6875   35.4800  -15.6411 C   0  0  0  0  0  0  0  0  0  0  0  0
   -1.6324   35.5983  -16.5713 N   0  0  0  0  0  0  0  0  0  0  0  0
   -1.2606   34.9716  -17.6056 N   0  0  0  0  0  0  0  0  0  0  0  0
    0.3751   33.9692  -18.1953 H   0  0  0  0  0  0  0  0  0  0  0  0
  1  9  1  0  0  0
  1  2  1  0  0  0
  3  2  2  0  0  0
  3  4  1  0  0  0
  9  8  2  0  0  0
  2  7  1  0  0  0
  4  5  2  0  0  0
  8  7  1  0  0  0
  7  6  2  0  0  0
  5  6  1  0  0  0
  1 10  1  0  0  0
M  END
> <minimizedAffinity>
-5.86920

$$$$
3UZJ_0CT_A_301


 10 11  0  0  0  0  0  0  0  0999 V2000
   -2.2220   36.2347  -16.1385 N   0  0  0  0  0  0  0  0  0  0  0  0
   -1.1000   35.7394  -15.5859 C   0  0  0  0  0  0  0  0  0  0  0  0
   -0.5042   35.9185  -14.3630 C   0  0  0  0  0  0  0  0  0  0  0  0
    0.6832   35.3701  -13.9604 C   0  0  0  0  0  0  0  0  0  0  0  0
    1.3014   34.5704  -14.9262 C   0  0  0  0  0  0  0  0  0  0  0  0
    0.7137   34.3264  -16.2226 C   0  0  0  0  0  0  0  0  0  0  0  0
   -0.4914   34.9473  -16.5427 C   0  0  0  0  0  0  0  0  0  0  0  0
   -1.3065   35.0127  -17.5931 N   0  0  0  0  0  0  0  0  0  0  0  0
   -2.2641   35.7906  -17.3124 N   0  0  0  0  0  0  0  0  0  0  0  0
   -2.8796   36.8276  -15.7081 H   0  0  0  0  0  0  0  0  0  0  0  0
  1  9  1  0  0  0
  1  2  1  0  0  0
  3  2  2  0  0  0
  3  4  1  0  0  0
  9  8  2  0  0  0
  2  7  1  0  0  0
  4  5  2  0  0  0
  8  7  1  0  0  0
  7  6  2  0  0  0
  5  6  1  0  0  0
  1 10  1  0  0  0
M  END
> <minimizedAffinity>
-5.73396

$$$$
3UZJ_0CT_A_301


 10 11  0  0  0  0  0  0  0  0999 V2000
   -3.6479   37.3573  -16.4959 N   0  0  0  0  0  0  0  0  0  0  0  0
   -2.5836   36.5507  -16.3343 C   0  0  0  0  0  0  0  0  0  0  0  0
   -2.0325   35.5652  -17.1139 C   0  0  0  0  0  0  0  0  0  0  0  0
   -0.9557   34.7880  -16.7832 C   0  0  0  0  0  0  0  0  0  0  0  0
   -0.4150   35.0644  -15.5240 C   0  0  0  0  0  0  0  0  0  0  0  0
   -0.9369   36.1032  -14.6671 C   0  0  0  0  0  0  0  0  0  0  0  0
   -2.0496   36.8273  -15.0887 C   0  0  0  0  0  0  0  0  0  0  0  0
   -2.8250   37.7949  -14.6043 N   0  0  0  0  0  0  0  0  0  0  0  0
   -3.7424   38.0339  -15.4422 N   0  0  0  0  0  0  0  0  0  0  0  0
   -4.2360   37.4074  -17.2839 H   0  0  0  0  0  0  0  0  0  0  0  0
  1  9  1  0  0  0
  1  2  1  0  0  0
  3  2  2  0  0  0
  3  4  1  0  0  0
  9  8  2  0  0  0
  2  7  1  0  0  0
  4  5  2  0  0  0
  8  7  1  0  0  0
  7  6  2  0  0  0
  5  6  1  0  0  0
  1 10  1  0  0  0
M  END
> <minimizedAffinity>
-5.73109

$$$$
3UZJ_0CT_A_301


 10 11  0  0  0  0  0  0  0  0999 V2000
    0.7814   34.3768  -15.8120 N   0  0  0  0  0  0  0  0  0  0  0  0
   -0.3904   35.0228  -15.9506 C   0  0  0  0  0  0  0  0  0  0  0  0
   -1.3236   35.0580  -16.9558 C   0  0  0  0  0  0  0  0  0  0  0  0
   -2.4636   35.8150  -16.9668 C   0  0  0  0  0  0  0  0  0  0  0  0
   -2.6357   36.6078  -15.8283 C   0  0  0  0  0  0  0  0  0  0  0  0
   -1.7002   36.5980  -14.7280 C   0  0  0  0  0  0  0  0  0  0  0  0
   -0.5590   35.8050  -14.8223 C   0  0  0  0  0  0  0  0  0  0  0  0
    0.5184   35.5535  -14.0820 N   0  0  0  0  0  0  0  0  0  0  0  0
    1.2650   34.7524  -14.7156 N   0  0  0  0  0  0  0  0  0  0  0  0
    1.1806   33.7367  -16.4446 H   0  0  0  0  0  0  0  0  0  0  0  0
  1  9  1  0  0  0
  1  2  1  0  0  0
  3  2  2  0  0  0
  3  4  1  0  0  0
  9  8  2  0  0  0
  2  7  1  0  0  0
  4  5  2  0  0  0
  8  7  1  0  0  0
  7  6  2  0  0  0
  5  6  1  0  0  0
  1 10  1  0  0  0
M  END
> <minimizedAffinity>
-5.61110

$$$$
3UZJ_0CT_A_301


 10 11  0  0  0  0  0  0  0  0999 V2000
   -1.5941   35.3847  -16.6256 N   0  0  0  0  0  0  0  0  0  0  0  0
   -0.6457   35.3166  -15.6741 C   0  0  0  0  0  0  0  0  0  0  0  0
   -0.5581   35.8307  -14.4050 C   0  0  0  0  0  0  0  0  0  0  0  0
    0.5130   35.7100  -13.5619 C   0  0  0  0  0  0  0  0  0  0  0  0
    1.5869   34.9940  -14.0992 C   0  0  0  0  0  0  0  0  0  0  0  0
    1.5466   34.4105  -15.4197 C   0  0  0  0  0  0  0  0  0  0  0  0
    0.4147   34.6064  -16.2075 C   0  0  0  0  0  0  0  0  0  0  0  0
    0.0130   34.2853  -17.4353 N   0  0  0  0  0  0  0  0  0  0  0  0
   -1.1328   34.7860  -17.6286 N   0  0  0  0  0  0  0  0  0  0  0  0
   -2.4750   35.8179  -16.5507 H   0  0  0  0  0  0  0  0  0  0  0  0
  1  9  1  0  0  0
  1  2  1  0  0  0
  3  2  2  0  0  0
  3  4  1  0  0  0
  9  8  2  0  0  0
  2  7  1  0  0  0
  4  5  2  0  0  0
  8  7  1  0  0  0
  7  6  2  0  0  0
  5  6  1  0  0  0
  1 10  1  0  0  0
M  END
> <minimizedAffinity>
-5.53491

$$$$
3UZJ_0CT_A_301


 10 11  0  0  0  0  0  0  0  0999 V2000
    1.5231   34.8586  -12.8887 N   0  0  0  0  0  0  0  0  0  0  0  0
    2.2779   35.9693  -12.8101 C   0  0  0  0  0  0  0  0  0  0  0  0
    2.1624   37.1267  -12.0824 C   0  0  0  0  0  0  0  0  0  0  0  0
    3.0033   38.2043  -12.1490 C   0  0  0  0  0  0  0  0  0  0  0  0
    4.0515   38.0572  -13.0623 C   0  0  0  0  0  0  0  0  0  0  0  0
    4.2385   36.8553  -13.8409 C   0  0  0  0  0  0  0  0  0  0  0  0
    3.3149   35.8205  -13.7132 C   0  0  0  0  0  0  0  0  0  0  0  0
    3.1135   34.6203  -14.2528 N   0  0  0  0  0  0  0  0  0  0  0  0
    2.0541   34.1311  -13.7639 N   0  0  0  0  0  0  0  0  0  0  0  0
    0.7149   34.6562  -12.3642 H   0  0  0  0  0  0  0  0  0  0  0  0
  1  9  1  0  0  0
  1  2  1  0  0  0
  3  2  2  0  0  0
  3  4  1  0  0  0
  9  8  2  0  0  0
  2  7  1  0  0  0
  4  5  2  0  0  0
  8  7  1  0  0  0
  7  6  2  0  0  0
  5  6  1  0  0  0
  1 10  1  0  0  0
M  END
> <minimizedAffinity>
-5.13683

$$$$
3UZJ_0CT_A_301


 10 11  0  0  0  0  0  0  0  0999 V2000
    1.8538   34.6538  -17.7201 N   0  0  0  0  0  0  0  0  0  0  0  0
    2.4275   34.9332  -16.5359 C   0  0  0  0  0  0  0  0  0  0  0  0
    3.6476   35.4571  -16.1902 C   0  0  0  0  0  0  0  0  0  0  0  0
    4.1106   35.6407  -14.9156 C   0  0  0  0  0  0  0  0  0  0  0  0
    3.2194   35.2337  -13.9184 C   0  0  0  0  0  0  0  0  0  0  0  0
    1.9133   34.6954  -14.2184 C   0  0  0  0  0  0  0  0  0  0  0  0
    1.5432   34.5313  -15.5511 C   0  0  0  0  0  0  0  0  0  0  0  0
    0.4953   34.0573  -16.2215 N   0  0  0  0  0  0  0  0  0  0  0  0
    0.7451   34.1245  -17.4601 N   0  0  0  0  0  0  0  0  0  0  0  0
    2.2288   34.8294  -18.6133 H   0  0  0  0  0  0  0  0  0  0  0  0
  1  9  1  0  0  0
  1  2  1  0  0  0
  3  2  2  0  0  0
  3  4  1  0  0  0
  9  8  2  0  0  0
  2  7  1  0  0  0
  4  5  2  0  0  0
  8  7  1  0  0  0
  7  6  2  0  0  0
  5  6  1  0  0  0
  1 10  1  0  0  0
M  END
> <minimizedAffinity>
-4.88315

$$$$
