2HMU_ATP_A_601


 39 41  0  0  0  0  0  0  0  0999 V2000
  110.4856   52.2188   14.5002 C   0  0  0  0  0  0  0  0  0  0  0  0
  109.4256   53.1127   14.0534 O   0  0  0  0  0  0  0  0  0  0  0  0
  111.7602   52.5794   13.6733 C   0  0  0  0  0  0  0  0  0  0  0  0
  111.9318   51.6756   12.5676 O   0  0  0  0  0  0  0  0  0  0  0  0
  111.4944   54.0105   13.2224 C   0  0  0  0  0  0  0  0  0  0  0  0
  112.1910   54.3529   12.0191 O   0  0  0  0  0  0  0  0  0  0  0  0
  109.9697   54.0372   13.0704 C   0  0  0  0  0  0  0  0  0  0  0  0
  111.1395   51.6948   12.0084 H   0  0  0  0  0  0  0  0  0  0  0  0
  111.9357   53.7397   11.3121 H   0  0  0  0  0  0  0  0  0  0  0  0
  109.4392   55.3800   13.2977 N   0  0  0  0  0  0  0  0  0  0  0  0
  109.8767   56.3010   14.2222 C   0  0  0  0  0  0  0  0  0  0  0  0
  109.1734   57.3850   14.1386 N   0  0  0  0  0  0  0  0  0  0  0  0
  108.2408   57.2390   13.1604 C   0  0  0  0  0  0  0  0  0  0  0  0
  107.2136   58.0576   12.6158 C   0  0  0  0  0  0  0  0  0  0  0  0
  107.0028   59.3387   13.1044 N   0  0  0  0  0  0  0  0  0  0  0  0
  106.4471   57.5636   11.6096 N   0  0  0  0  0  0  0  0  0  0  0  0
  106.6375   56.3312   11.1240 C   0  0  0  0  0  0  0  0  0  0  0  0
  107.5939   55.5323   11.6099 N   0  0  0  0  0  0  0  0  0  0  0  0
  108.4045   55.9423   12.6124 C   0  0  0  0  0  0  0  0  0  0  0  0
  107.5650   59.6859   13.8343 H   0  0  0  0  0  0  0  0  0  0  0  0
  106.2910   59.9007   12.7214 H   0  0  0  0  0  0  0  0  0  0  0  0
  110.6809   52.4207   16.0070 C   0  0  0  0  0  0  0  0  0  0  0  0
  110.3404   51.2346   16.7207 O   0  0  0  0  0  0  0  0  0  0  0  0
  111.6659   50.6399   17.4591 P   0  0  0  0  0  0  0  0  0  0  0  0
  112.8966   50.8739   16.6564 O   0  0  0  0  0  0  0  0  0  0  0  0
  111.8412   51.3848   18.8801 O   0  0  0  0  0  0  0  0  0  0  0  0
  112.6277   51.0399   19.3310 H   0  0  0  0  0  0  0  0  0  0  0  0
  111.4717   49.0388   17.6477 O   0  0  0  0  0  0  0  0  0  0  0  0
  110.2785   48.7356   18.7070 P   0  0  0  0  0  0  0  0  0  0  0  0
  109.7469   47.3710   18.4552 O   0  0  0  0  0  0  0  0  0  0  0  0
  109.0968   49.8070   18.4697 O   0  0  0  0  0  0  0  0  0  0  0  0
  108.3762   49.6376   19.0966 H   0  0  0  0  0  0  0  0  0  0  0  0
  110.8385   48.8863   20.2330 O   0  0  0  0  0  0  0  0  0  0  0  0
  112.2079   48.0320   20.4485 P   0  0  0  0  0  0  0  0  0  0  0  0
  112.2672   47.5703   21.8624 O   0  0  0  0  0  0  0  0  0  0  0  0
  112.2265   46.7476   19.4730 O   0  0  0  0  0  0  0  0  0  0  0  0
  113.4778   48.9720   20.1285 O   0  0  0  0  0  0  0  0  0  0  0  0
  113.0465   46.2483   19.6114 H   0  0  0  0  0  0  0  0  0  0  0  0
  114.2952   48.4656   20.2561 H   0  0  0  0  0  0  0  0  0  0  0  0
 34 35  2  0  0  0
 34 36  1  0  0  0
 34 37  1  0  0  0
 34 33  1  0  0  0
 29 30  2  0  0  0
 29 31  1  0  0  0
 29 33  1  0  0  0
 29 28  1  0  0  0
 24 25  2  0  0  0
 24 26  1  0  0  0
 24 28  1  0  0  0
 24 23  1  0  0  0
 23 22  1  0  0  0
 22  1  1  0  0  0
  1  2  1  0  0  0
  1  3  1  0  0  0
  2  7  1  0  0  0
  3  4  1  0  0  0
  3  5  1  0  0  0
  5  6  1  0  0  0
  5  7  1  0  0  0
  7 10  1  0  0  0
 10 11  1  0  0  0
 10 19  1  0  0  0
 11 12  2  0  0  0
 12 13  1  0  0  0
 13 14  1  0  0  0
 13 19  2  0  0  0
 14 15  1  0  0  0
 14 16  2  0  0  0
 16 17  1  0  0  0
 17 18  2  0  0  0
 18 19  1  0  0  0
 36 38  1  0  0  0
 37 39  1  0  0  0
 31 32  1  0  0  0
 26 27  1  0  0  0
  4  8  1  0  0  0
  6  9  1  0  0  0
 15 20  1  0  0  0
 15 21  1  0  0  0
M  END
> <minimizedAffinity>
-9.01374

$$$$
2HMU_ATP_A_601


 39 41  0  0  0  0  0  0  0  0999 V2000
  110.7855   52.3588   14.8117 C   0  0  0  0  0  0  0  0  0  0  0  0
  109.6456   53.1688   14.4033 O   0  0  0  0  0  0  0  0  0  0  0  0
  111.9411   52.6645   13.8069 C   0  0  0  0  0  0  0  0  0  0  0  0
  112.0216   51.6521   12.7883 O   0  0  0  0  0  0  0  0  0  0  0  0
  111.5668   54.0305   13.2447 C   0  0  0  0  0  0  0  0  0  0  0  0
  112.1062   54.2610   11.9384 O   0  0  0  0  0  0  0  0  0  0  0  0
  110.0350   53.9971   13.2723 C   0  0  0  0  0  0  0  0  0  0  0  0
  111.1703   51.5883   12.3278 H   0  0  0  0  0  0  0  0  0  0  0  0
  111.7969   53.5682   11.3340 H   0  0  0  0  0  0  0  0  0  0  0  0
  109.4794   55.3409   13.4203 N   0  0  0  0  0  0  0  0  0  0  0  0
  109.8833   56.3143   14.3056 C   0  0  0  0  0  0  0  0  0  0  0  0
  109.1655   57.3811   14.1528 N   0  0  0  0  0  0  0  0  0  0  0  0
  108.2562   57.1708   13.1646 C   0  0  0  0  0  0  0  0  0  0  0  0
  107.2284   57.9442   12.5583 C   0  0  0  0  0  0  0  0  0  0  0  0
  106.9879   59.2447   12.9769 N   0  0  0  0  0  0  0  0  0  0  0  0
  106.4910   57.3877   11.5631 N   0  0  0  0  0  0  0  0  0  0  0  0
  106.7103   56.1357   11.1446 C   0  0  0  0  0  0  0  0  0  0  0  0
  107.6682   55.3779   11.6897 N   0  0  0  0  0  0  0  0  0  0  0  0
  108.4511   55.8510   12.6865 C   0  0  0  0  0  0  0  0  0  0  0  0
  107.5292   59.6374   13.6995 H   0  0  0  0  0  0  0  0  0  0  0  0
  106.2759   59.7751   12.5515 H   0  0  0  0  0  0  0  0  0  0  0  0
  111.1438   52.7274   16.2557 C   0  0  0  0  0  0  0  0  0  0  0  0
  112.5583   52.7936   16.4206 O   0  0  0  0  0  0  0  0  0  0  0  0
  113.0487   51.6082   17.4255 P   0  0  0  0  0  0  0  0  0  0  0  0
  113.6600   50.4728   16.6831 O   0  0  0  0  0  0  0  0  0  0  0  0
  114.1597   52.2111   18.4291 O   0  0  0  0  0  0  0  0  0  0  0  0
  114.4608   51.5150   19.0339 H   0  0  0  0  0  0  0  0  0  0  0  0
  111.7543   51.0555   18.2353 O   0  0  0  0  0  0  0  0  0  0  0  0
  112.2230   50.2248   19.5499 P   0  0  0  0  0  0  0  0  0  0  0  0
  112.3485   51.1651   20.6937 O   0  0  0  0  0  0  0  0  0  0  0  0
  113.6659   49.5680   19.2547 O   0  0  0  0  0  0  0  0  0  0  0  0
  113.9588   49.0680   20.0326 H   0  0  0  0  0  0  0  0  0  0  0  0
  111.1497   49.0367   19.8684 O   0  0  0  0  0  0  0  0  0  0  0  0
  110.5860   48.3644   18.4967 P   0  0  0  0  0  0  0  0  0  0  0  0
  109.9856   47.0419   18.8228 O   0  0  0  0  0  0  0  0  0  0  0  0
  109.4575   49.3068   17.8332 O   0  0  0  0  0  0  0  0  0  0  0  0
  111.8046   48.1688   17.4598 O   0  0  0  0  0  0  0  0  0  0  0  0
  109.1308   48.8950   17.0180 H   0  0  0  0  0  0  0  0  0  0  0  0
  111.4717   47.7683   16.6414 H   0  0  0  0  0  0  0  0  0  0  0  0
 34 35  2  0  0  0
 34 36  1  0  0  0
 34 37  1  0  0  0
 34 33  1  0  0  0
 29 30  2  0  0  0
 29 31  1  0  0  0
 29 33  1  0  0  0
 29 28  1  0  0  0
 24 25  2  0  0  0
 24 26  1  0  0  0
 24 28  1  0  0  0
 24 23  1  0  0  0
 23 22  1  0  0  0
 22  1  1  0  0  0
  1  2  1  0  0  0
  1  3  1  0  0  0
  2  7  1  0  0  0
  3  4  1  0  0  0
  3  5  1  0  0  0
  5  6  1  0  0  0
  5  7  1  0  0  0
  7 10  1  0  0  0
 10 11  1  0  0  0
 10 19  1  0  0  0
 11 12  2  0  0  0
 12 13  1  0  0  0
 13 14  1  0  0  0
 13 19  2  0  0  0
 14 15  1  0  0  0
 14 16  2  0  0  0
 16 17  1  0  0  0
 17 18  2  0  0  0
 18 19  1  0  0  0
 36 38  1  0  0  0
 37 39  1  0  0  0
 31 32  1  0  0  0
 26 27  1  0  0  0
  4  8  1  0  0  0
  6  9  1  0  0  0
 15 20  1  0  0  0
 15 21  1  0  0  0
M  END
> <minimizedAffinity>
-8.72971

$$$$
2HMU_ATP_A_601


 39 41  0  0  0  0  0  0  0  0999 V2000
  110.2607   51.4250   15.0467 C   0  0  0  0  0  0  0  0  0  0  0  0
  109.3157   52.4460   14.6144 O   0  0  0  0  0  0  0  0  0  0  0  0
  111.5063   51.5363   14.1116 C   0  0  0  0  0  0  0  0  0  0  0  0
  111.4527   50.5559   13.0605 O   0  0  0  0  0  0  0  0  0  0  0  0
  111.4245   52.9637   13.5841 C   0  0  0  0  0  0  0  0  0  0  0  0
  112.0682   53.1253   12.3153 O   0  0  0  0  0  0  0  0  0  0  0  0
  109.9140   53.2179   13.5359 C   0  0  0  0  0  0  0  0  0  0  0  0
  110.6310   50.6663   12.5570 H   0  0  0  0  0  0  0  0  0  0  0  0
  111.6690   52.5203   11.6708 H   0  0  0  0  0  0  0  0  0  0  0  0
  109.6111   54.6375   13.7077 N   0  0  0  0  0  0  0  0  0  0  0  0
  110.2110   55.5155   14.5815 C   0  0  0  0  0  0  0  0  0  0  0  0
  109.6893   56.6940   14.4574 N   0  0  0  0  0  0  0  0  0  0  0  0
  108.7242   56.6576   13.5009 C   0  0  0  0  0  0  0  0  0  0  0  0
  107.8301   57.6066   12.9335 C   0  0  0  0  0  0  0  0  0  0  0  0
  107.8385   58.9252   13.3645 N   0  0  0  0  0  0  0  0  0  0  0  0
  106.9723   57.1991   11.9628 N   0  0  0  0  0  0  0  0  0  0  0  0
  106.9517   55.9320   11.5328 C   0  0  0  0  0  0  0  0  0  0  0  0
  107.7778   55.0113   12.0416 N   0  0  0  0  0  0  0  0  0  0  0  0
  108.6655   55.3287   13.0120 C   0  0  0  0  0  0  0  0  0  0  0  0
  108.4650   59.2088   14.0690 H   0  0  0  0  0  0  0  0  0  0  0  0
  107.2180   59.5773   12.9659 H   0  0  0  0  0  0  0  0  0  0  0  0
  110.6016   51.6789   16.5193 C   0  0  0  0  0  0  0  0  0  0  0  0
  111.5890   50.7557   16.9723 O   0  0  0  0  0  0  0  0  0  0  0  0
  110.9414   49.7682   18.0954 P   0  0  0  0  0  0  0  0  0  0  0  0
  111.4747   50.0536   19.4548 O   0  0  0  0  0  0  0  0  0  0  0  0
  109.3440   49.9966   18.1220 O   0  0  0  0  0  0  0  0  0  0  0  0
  108.9451   49.4141   18.7872 H   0  0  0  0  0  0  0  0  0  0  0  0
  111.3161   48.2366   17.7073 O   0  0  0  0  0  0  0  0  0  0  0  0
  112.8909   47.9527   17.9853 P   0  0  0  0  0  0  0  0  0  0  0  0
  113.0332   47.2784   19.3017 O   0  0  0  0  0  0  0  0  0  0  0  0
  113.6659   49.3660   18.0374 O   0  0  0  0  0  0  0  0  0  0  0  0
  114.6091   49.2115   18.2030 H   0  0  0  0  0  0  0  0  0  0  0  0
  113.5134   47.0456   16.7791 O   0  0  0  0  0  0  0  0  0  0  0  0
  114.2688   47.9703   15.6720 P   0  0  0  0  0  0  0  0  0  0  0  0
  115.5721   48.4206   16.2327 O   0  0  0  0  0  0  0  0  0  0  0  0
  114.5379   47.1247   14.3250 O   0  0  0  0  0  0  0  0  0  0  0  0
  113.3505   49.2508   15.3318 O   0  0  0  0  0  0  0  0  0  0  0  0
  114.9878   47.6867   13.6749 H   0  0  0  0  0  0  0  0  0  0  0  0
  113.7981   49.8036   14.6723 H   0  0  0  0  0  0  0  0  0  0  0  0
 34 35  2  0  0  0
 34 36  1  0  0  0
 34 37  1  0  0  0
 34 33  1  0  0  0
 29 30  2  0  0  0
 29 31  1  0  0  0
 29 33  1  0  0  0
 29 28  1  0  0  0
 24 25  2  0  0  0
 24 26  1  0  0  0
 24 28  1  0  0  0
 24 23  1  0  0  0
 23 22  1  0  0  0
 22  1  1  0  0  0
  1  2  1  0  0  0
  1  3  1  0  0  0
  2  7  1  0  0  0
  3  4  1  0  0  0
  3  5  1  0  0  0
  5  6  1  0  0  0
  5  7  1  0  0  0
  7 10  1  0  0  0
 10 11  1  0  0  0
 10 19  1  0  0  0
 11 12  2  0  0  0
 12 13  1  0  0  0
 13 14  1  0  0  0
 13 19  2  0  0  0
 14 15  1  0  0  0
 14 16  2  0  0  0
 16 17  1  0  0  0
 17 18  2  0  0  0
 18 19  1  0  0  0
 36 38  1  0  0  0
 37 39  1  0  0  0
 31 32  1  0  0  0
 26 27  1  0  0  0
  4  8  1  0  0  0
  6  9  1  0  0  0
 15 20  1  0  0  0
 15 21  1  0  0  0
M  END
> <minimizedAffinity>
-8.35132

$$$$
2HMU_ATP_A_601


 39 41  0  0  0  0  0  0  0  0999 V2000
  110.5853   52.2232   14.7626 C   0  0  0  0  0  0  0  0  0  0  0  0
  109.4905   53.0824   14.3321 O   0  0  0  0  0  0  0  0  0  0  0  0
  111.7915   52.5184   13.8158 C   0  0  0  0  0  0  0  0  0  0  0  0
  111.8820   51.5334   12.7716 O   0  0  0  0  0  0  0  0  0  0  0  0
  111.4858   53.9118   13.2799 C   0  0  0  0  0  0  0  0  0  0  0  0
  112.0869   54.1612   12.0044 O   0  0  0  0  0  0  0  0  0  0  0  0
  109.9539   53.9291   13.2434 C   0  0  0  0  0  0  0  0  0  0  0  0
  111.0492   51.5115   12.2747 H   0  0  0  0  0  0  0  0  0  0  0  0
  111.7811   53.4968   11.3673 H   0  0  0  0  0  0  0  0  0  0  0  0
  109.4364   55.2861   13.4087 N   0  0  0  0  0  0  0  0  0  0  0  0
  109.8671   56.2362   14.3066 C   0  0  0  0  0  0  0  0  0  0  0  0
  109.1799   57.3247   14.1674 N   0  0  0  0  0  0  0  0  0  0  0  0
  108.2655   57.1530   13.1763 C   0  0  0  0  0  0  0  0  0  0  0  0
  107.2604   57.9629   12.5799 C   0  0  0  0  0  0  0  0  0  0  0  0
  107.0565   59.2642   13.0152 N   0  0  0  0  0  0  0  0  0  0  0  0
  106.5081   57.4404   11.5774 N   0  0  0  0  0  0  0  0  0  0  0  0
  106.6922   56.1882   11.1428 C   0  0  0  0  0  0  0  0  0  0  0  0
  107.6280   55.3966   11.6783 N   0  0  0  0  0  0  0  0  0  0  0  0
  108.4234   55.8345   12.6813 C   0  0  0  0  0  0  0  0  0  0  0  0
  107.6082   59.6320   13.7429 H   0  0  0  0  0  0  0  0  0  0  0  0
  106.3600   59.8199   12.5965 H   0  0  0  0  0  0  0  0  0  0  0  0
  110.8943   52.5381   16.2305 C   0  0  0  0  0  0  0  0  0  0  0  0
  110.8453   51.3518   17.0195 O   0  0  0  0  0  0  0  0  0  0  0  0
  112.3314   51.0169   17.5982 P   0  0  0  0  0  0  0  0  0  0  0  0
  113.4017   51.5399   16.7067 O   0  0  0  0  0  0  0  0  0  0  0  0
  112.4911   51.7180   19.0431 O   0  0  0  0  0  0  0  0  0  0  0  0
  113.3726   51.5265   19.3998 H   0  0  0  0  0  0  0  0  0  0  0  0
  112.4897   49.4040   17.6999 O   0  0  0  0  0  0  0  0  0  0  0  0
  113.4944   49.0106   18.9138 P   0  0  0  0  0  0  0  0  0  0  0  0
  114.6848   49.8982   18.8599 O   0  0  0  0  0  0  0  0  0  0  0  0
  113.9731   47.4842   18.7097 O   0  0  0  0  0  0  0  0  0  0  0  0
  114.5747   47.2351   19.4287 H   0  0  0  0  0  0  0  0  0  0  0  0
  112.7166   49.1405   20.3432 O   0  0  0  0  0  0  0  0  0  0  0  0
  111.8587   47.7968   20.6749 P   0  0  0  0  0  0  0  0  0  0  0  0
  112.7995   46.7133   21.0710 O   0  0  0  0  0  0  0  0  0  0  0  0
  110.8315   48.0728   21.8874 O   0  0  0  0  0  0  0  0  0  0  0  0
  111.0372   47.3518   19.3613 O   0  0  0  0  0  0  0  0  0  0  0  0
  110.3275   47.2653   22.0744 H   0  0  0  0  0  0  0  0  0  0  0  0
  110.5251   46.5514   19.5560 H   0  0  0  0  0  0  0  0  0  0  0  0
 34 35  2  0  0  0
 34 36  1  0  0  0
 34 37  1  0  0  0
 34 33  1  0  0  0
 29 30  2  0  0  0
 29 31  1  0  0  0
 29 33  1  0  0  0
 29 28  1  0  0  0
 24 25  2  0  0  0
 24 26  1  0  0  0
 24 28  1  0  0  0
 24 23  1  0  0  0
 23 22  1  0  0  0
 22  1  1  0  0  0
  1  2  1  0  0  0
  1  3  1  0  0  0
  2  7  1  0  0  0
  3  4  1  0  0  0
  3  5  1  0  0  0
  5  6  1  0  0  0
  5  7  1  0  0  0
  7 10  1  0  0  0
 10 11  1  0  0  0
 10 19  1  0  0  0
 11 12  2  0  0  0
 12 13  1  0  0  0
 13 14  1  0  0  0
 13 19  2  0  0  0
 14 15  1  0  0  0
 14 16  2  0  0  0
 16 17  1  0  0  0
 17 18  2  0  0  0
 18 19  1  0  0  0
 36 38  1  0  0  0
 37 39  1  0  0  0
 31 32  1  0  0  0
 26 27  1  0  0  0
  4  8  1  0  0  0
  6  9  1  0  0  0
 15 20  1  0  0  0
 15 21  1  0  0  0
M  END
> <minimizedAffinity>
-8.28131

$$$$
2HMU_ATP_A_601


 39 41  0  0  0  0  0  0  0  0999 V2000
  111.6184   53.5655   14.9592 C   0  0  0  0  0  0  0  0  0  0  0  0
  110.7771   54.6475   15.4529 O   0  0  0  0  0  0  0  0  0  0  0  0
  111.0933   53.1975   13.5354 C   0  0  0  0  0  0  0  0  0  0  0  0
  110.2314   52.0470   13.5838 O   0  0  0  0  0  0  0  0  0  0  0  0
  110.3606   54.4585   13.0934 C   0  0  0  0  0  0  0  0  0  0  0  0
  109.3333   54.1961   12.1309 O   0  0  0  0  0  0  0  0  0  0  0  0
  109.8254   55.0172   14.4163 C   0  0  0  0  0  0  0  0  0  0  0  0
  109.4946   52.2203   14.1903 H   0  0  0  0  0  0  0  0  0  0  0  0
  108.6957   53.5664   12.5020 H   0  0  0  0  0  0  0  0  0  0  0  0
  109.6868   56.4711   14.3585 N   0  0  0  0  0  0  0  0  0  0  0  0
  110.4711   57.4067   14.9940 C   0  0  0  0  0  0  0  0  0  0  0  0
  110.0569   58.6007   14.7124 N   0  0  0  0  0  0  0  0  0  0  0  0
  108.9848   58.5180   13.8808 C   0  0  0  0  0  0  0  0  0  0  0  0
  108.1269   59.4567   13.2447 C   0  0  0  0  0  0  0  0  0  0  0  0
  108.3170   60.8187   13.4273 N   0  0  0  0  0  0  0  0  0  0  0  0
  107.1225   58.9956   12.4555 N   0  0  0  0  0  0  0  0  0  0  0  0
  106.9255   57.6857   12.2659 C   0  0  0  0  0  0  0  0  0  0  0  0
  107.7120   56.7728   12.8464 N   0  0  0  0  0  0  0  0  0  0  0  0
  108.7370   57.1421   13.6486 C   0  0  0  0  0  0  0  0  0  0  0  0
  109.0486   61.1409   14.0019 H   0  0  0  0  0  0  0  0  0  0  0  0
  107.7203   61.4630   12.9824 H   0  0  0  0  0  0  0  0  0  0  0  0
  113.0710   54.0543   14.9463 C   0  0  0  0  0  0  0  0  0  0  0  0
  113.9646   52.9803   15.2294 O   0  0  0  0  0  0  0  0  0  0  0  0
  113.5419   52.2718   16.6348 P   0  0  0  0  0  0  0  0  0  0  0  0
  114.7292   51.9659   17.4778 O   0  0  0  0  0  0  0  0  0  0  0  0
  112.5883   53.2834   17.4546 O   0  0  0  0  0  0  0  0  0  0  0  0
  112.3287   52.8737   18.2947 H   0  0  0  0  0  0  0  0  0  0  0  0
  112.7789   50.8789   16.2966 O   0  0  0  0  0  0  0  0  0  0  0  0
  111.6943   50.5335   17.4552 P   0  0  0  0  0  0  0  0  0  0  0  0
  110.4463   51.2946   17.1883 O   0  0  0  0  0  0  0  0  0  0  0  0
  112.2953   51.0006   18.8768 O   0  0  0  0  0  0  0  0  0  0  0  0
  111.6572   50.8001   19.5793 H   0  0  0  0  0  0  0  0  0  0  0  0
  111.4163   48.9253   17.4945 O   0  0  0  0  0  0  0  0  0  0  0  0
  110.2972   48.5449   18.6145 P   0  0  0  0  0  0  0  0  0  0  0  0
  110.8272   48.8971   19.9602 O   0  0  0  0  0  0  0  0  0  0  0  0
  108.9370   49.3705   18.3506 O   0  0  0  0  0  0  0  0  0  0  0  0
  109.9915   46.9637   18.5461 O   0  0  0  0  0  0  0  0  0  0  0  0
  108.2798   49.1347   19.0240 H   0  0  0  0  0  0  0  0  0  0  0  0
  109.3250   46.7341   19.2124 H   0  0  0  0  0  0  0  0  0  0  0  0
 34 35  2  0  0  0
 34 36  1  0  0  0
 34 37  1  0  0  0
 34 33  1  0  0  0
 29 30  2  0  0  0
 29 31  1  0  0  0
 29 33  1  0  0  0
 29 28  1  0  0  0
 24 25  2  0  0  0
 24 26  1  0  0  0
 24 28  1  0  0  0
 24 23  1  0  0  0
 23 22  1  0  0  0
 22  1  1  0  0  0
  1  2  1  0  0  0
  1  3  1  0  0  0
  2  7  1  0  0  0
  3  4  1  0  0  0
  3  5  1  0  0  0
  5  6  1  0  0  0
  5  7  1  0  0  0
  7 10  1  0  0  0
 10 11  1  0  0  0
 10 19  1  0  0  0
 11 12  2  0  0  0
 12 13  1  0  0  0
 13 14  1  0  0  0
 13 19  2  0  0  0
 14 15  1  0  0  0
 14 16  2  0  0  0
 16 17  1  0  0  0
 17 18  2  0  0  0
 18 19  1  0  0  0
 36 38  1  0  0  0
 37 39  1  0  0  0
 31 32  1  0  0  0
 26 27  1  0  0  0
  4  8  1  0  0  0
  6  9  1  0  0  0
 15 20  1  0  0  0
 15 21  1  0  0  0
M  END
> <minimizedAffinity>
-7.88015

$$$$
2HMU_ATP_A_601


 39 41  0  0  0  0  0  0  0  0999 V2000
  113.2649   50.2828   17.3089 C   0  0  0  0  0  0  0  0  0  0  0  0
  113.0545   50.8193   15.9710 O   0  0  0  0  0  0  0  0  0  0  0  0
  112.9409   51.4331   18.3140 C   0  0  0  0  0  0  0  0  0  0  0  0
  114.1435   52.0860   18.7573 O   0  0  0  0  0  0  0  0  0  0  0  0
  112.0358   52.3587   17.5100 C   0  0  0  0  0  0  0  0  0  0  0  0
  112.0793   53.7147   17.9683 O   0  0  0  0  0  0  0  0  0  0  0  0
  112.5601   52.1833   16.0808 C   0  0  0  0  0  0  0  0  0  0  0  0
  114.6298   52.4242   17.9891 H   0  0  0  0  0  0  0  0  0  0  0  0
  112.9918   54.0408   17.9270 H   0  0  0  0  0  0  0  0  0  0  0  0
  111.5032   52.4140   15.0979 N   0  0  0  0  0  0  0  0  0  0  0  0
  110.8164   51.4636   14.3773 C   0  0  0  0  0  0  0  0  0  0  0  0
  109.9492   52.0325   13.6023 N   0  0  0  0  0  0  0  0  0  0  0  0
  110.0160   53.3800   13.7692 C   0  0  0  0  0  0  0  0  0  0  0  0
  109.3357   54.4997   13.2166 C   0  0  0  0  0  0  0  0  0  0  0  0
  108.3381   54.3188   12.2697 N   0  0  0  0  0  0  0  0  0  0  0  0
  109.6788   55.7455   13.6342 N   0  0  0  0  0  0  0  0  0  0  0  0
  110.6368   55.9391   14.5482 C   0  0  0  0  0  0  0  0  0  0  0  0
  111.2980   54.9110   15.0912 N   0  0  0  0  0  0  0  0  0  0  0  0
  111.0216   53.6356   14.7344 C   0  0  0  0  0  0  0  0  0  0  0  0
  108.0982   53.4106   11.9748 H   0  0  0  0  0  0  0  0  0  0  0  0
  107.8700   55.0985   11.8927 H   0  0  0  0  0  0  0  0  0  0  0  0
  112.3504   49.0658   17.4877 C   0  0  0  0  0  0  0  0  0  0  0  0
  111.4774   49.2527   18.5991 O   0  0  0  0  0  0  0  0  0  0  0  0
  111.1177   47.8083   19.2623 P   0  0  0  0  0  0  0  0  0  0  0  0
  110.1115   47.0659   18.4560 O   0  0  0  0  0  0  0  0  0  0  0  0
  112.4651   46.9222   19.3277 O   0  0  0  0  0  0  0  0  0  0  0  0
  112.2651   46.0583   19.7211 H   0  0  0  0  0  0  0  0  0  0  0  0
  110.5025   48.0640   20.7432 O   0  0  0  0  0  0  0  0  0  0  0  0
  111.6906   48.4026   21.7975 P   0  0  0  0  0  0  0  0  0  0  0  0
  111.1581   49.3091   22.8476 O   0  0  0  0  0  0  0  0  0  0  0  0
  112.8766   49.1591   21.0089 O   0  0  0  0  0  0  0  0  0  0  0  0
  113.5942   49.3679   21.6272 H   0  0  0  0  0  0  0  0  0  0  0  0
  112.2733   47.0201   22.4411 O   0  0  0  0  0  0  0  0  0  0  0  0
  113.8728   47.1277   22.7264 P   0  0  0  0  0  0  0  0  0  0  0  0
  114.2563   46.0756   23.7072 O   0  0  0  0  0  0  0  0  0  0  0  0
  114.7019   46.9034   21.3611 O   0  0  0  0  0  0  0  0  0  0  0  0
  114.2092   48.5840   23.3300 O   0  0  0  0  0  0  0  0  0  0  0  0
  115.6520   46.9700   21.5451 H   0  0  0  0  0  0  0  0  0  0  0  0
  115.1617   48.6510   23.5009 H   0  0  0  0  0  0  0  0  0  0  0  0
 34 35  2  0  0  0
 34 36  1  0  0  0
 34 37  1  0  0  0
 34 33  1  0  0  0
 29 30  2  0  0  0
 29 31  1  0  0  0
 29 33  1  0  0  0
 29 28  1  0  0  0
 24 25  2  0  0  0
 24 26  1  0  0  0
 24 28  1  0  0  0
 24 23  1  0  0  0
 23 22  1  0  0  0
 22  1  1  0  0  0
  1  2  1  0  0  0
  1  3  1  0  0  0
  2  7  1  0  0  0
  3  4  1  0  0  0
  3  5  1  0  0  0
  5  6  1  0  0  0
  5  7  1  0  0  0
  7 10  1  0  0  0
 10 11  1  0  0  0
 10 19  1  0  0  0
 11 12  2  0  0  0
 12 13  1  0  0  0
 13 14  1  0  0  0
 13 19  2  0  0  0
 14 15  1  0  0  0
 14 16  2  0  0  0
 16 17  1  0  0  0
 17 18  2  0  0  0
 18 19  1  0  0  0
 36 38  1  0  0  0
 37 39  1  0  0  0
 31 32  1  0  0  0
 26 27  1  0  0  0
  4  8  1  0  0  0
  6  9  1  0  0  0
 15 20  1  0  0  0
 15 21  1  0  0  0
M  END
> <minimizedAffinity>
-7.57368

$$$$
2HMU_ATP_A_601


 39 41  0  0  0  0  0  0  0  0999 V2000
  111.2857   53.0417   15.5712 C   0  0  0  0  0  0  0  0  0  0  0  0
  110.0416   53.6956   15.1881 O   0  0  0  0  0  0  0  0  0  0  0  0
  112.2543   53.1624   14.3523 C   0  0  0  0  0  0  0  0  0  0  0  0
  112.2574   51.9534   13.5730 O   0  0  0  0  0  0  0  0  0  0  0  0
  111.7018   54.3541   13.5799 C   0  0  0  0  0  0  0  0  0  0  0  0
  112.0236   54.3104   12.1853 O   0  0  0  0  0  0  0  0  0  0  0  0
  110.1975   54.2674   13.8594 C   0  0  0  0  0  0  0  0  0  0  0  0
  111.3543   51.7558   13.2792 H   0  0  0  0  0  0  0  0  0  0  0  0
  111.6800   53.4893   11.7997 H   0  0  0  0  0  0  0  0  0  0  0  0
  109.5729   55.5878   13.8054 N   0  0  0  0  0  0  0  0  0  0  0  0
  109.8978   56.6924   14.5593 C   0  0  0  0  0  0  0  0  0  0  0  0
  109.1352   57.6892   14.2410 N   0  0  0  0  0  0  0  0  0  0  0  0
  108.2724   57.2989   13.2658 C   0  0  0  0  0  0  0  0  0  0  0  0
  107.2304   57.9275   12.5302 C   0  0  0  0  0  0  0  0  0  0  0  0
  106.9128   59.2584   12.7589 N   0  0  0  0  0  0  0  0  0  0  0  0
  106.5562   57.2028   11.6006 N   0  0  0  0  0  0  0  0  0  0  0  0
  106.8503   55.9188   11.3647 C   0  0  0  0  0  0  0  0  0  0  0  0
  107.8239   55.2936   12.0357 N   0  0  0  0  0  0  0  0  0  0  0  0
  108.5475   55.9385   12.9796 C   0  0  0  0  0  0  0  0  0  0  0  0
  107.4088   59.7736   13.4356 H   0  0  0  0  0  0  0  0  0  0  0  0
  106.1914   59.6877   12.2446 H   0  0  0  0  0  0  0  0  0  0  0  0
  111.8257   53.7348   16.8271 C   0  0  0  0  0  0  0  0  0  0  0  0
  111.8677   52.8251   17.9238 O   0  0  0  0  0  0  0  0  0  0  0  0
  113.4003   52.3256   18.1630 P   0  0  0  0  0  0  0  0  0  0  0  0
  113.6843   51.0528   17.4466 O   0  0  0  0  0  0  0  0  0  0  0  0
  114.4041   53.4566   17.5992 O   0  0  0  0  0  0  0  0  0  0  0  0
  115.3213   53.1719   17.7354 H   0  0  0  0  0  0  0  0  0  0  0  0
  113.6160   52.0795   19.7535 O   0  0  0  0  0  0  0  0  0  0  0  0
  112.7859   50.7710   20.2401 P   0  0  0  0  0  0  0  0  0  0  0  0
  113.7270   49.6299   20.3830 O   0  0  0  0  0  0  0  0  0  0  0  0
  111.6934   50.4070   19.1112 O   0  0  0  0  0  0  0  0  0  0  0  0
  111.1894   49.6261   19.3889 H   0  0  0  0  0  0  0  0  0  0  0  0
  112.0175   51.0910   21.6445 O   0  0  0  0  0  0  0  0  0  0  0  0
  111.6912   49.7235   22.4660 P   0  0  0  0  0  0  0  0  0  0  0  0
  110.6176   50.0050   23.4580 O   0  0  0  0  0  0  0  0  0  0  0  0
  111.1878   48.5701   21.4571 O   0  0  0  0  0  0  0  0  0  0  0  0
  113.0226   49.2304   23.2293 O   0  0  0  0  0  0  0  0  0  0  0  0
  110.9973   47.7621   21.9589 H   0  0  0  0  0  0  0  0  0  0  0  0
  112.8312   48.4157   23.7197 H   0  0  0  0  0  0  0  0  0  0  0  0
 34 35  2  0  0  0
 34 36  1  0  0  0
 34 37  1  0  0  0
 34 33  1  0  0  0
 29 30  2  0  0  0
 29 31  1  0  0  0
 29 33  1  0  0  0
 29 28  1  0  0  0
 24 25  2  0  0  0
 24 26  1  0  0  0
 24 28  1  0  0  0
 24 23  1  0  0  0
 23 22  1  0  0  0
 22  1  1  0  0  0
  1  2  1  0  0  0
  1  3  1  0  0  0
  2  7  1  0  0  0
  3  4  1  0  0  0
  3  5  1  0  0  0
  5  6  1  0  0  0
  5  7  1  0  0  0
  7 10  1  0  0  0
 10 11  1  0  0  0
 10 19  1  0  0  0
 11 12  2  0  0  0
 12 13  1  0  0  0
 13 14  1  0  0  0
 13 19  2  0  0  0
 14 15  1  0  0  0
 14 16  2  0  0  0
 16 17  1  0  0  0
 17 18  2  0  0  0
 18 19  1  0  0  0
 36 38  1  0  0  0
 37 39  1  0  0  0
 31 32  1  0  0  0
 26 27  1  0  0  0
  4  8  1  0  0  0
  6  9  1  0  0  0
 15 20  1  0  0  0
 15 21  1  0  0  0
M  END
> <minimizedAffinity>
-7.57286

$$$$
2HMU_ATP_A_601


 39 41  0  0  0  0  0  0  0  0999 V2000
  114.9636   52.7108   17.5009 C   0  0  0  0  0  0  0  0  0  0  0  0
  113.9297   51.9787   18.2201 O   0  0  0  0  0  0  0  0  0  0  0  0
  115.4437   51.7887   16.3357 C   0  0  0  0  0  0  0  0  0  0  0  0
  116.6563   51.0998   16.6880 O   0  0  0  0  0  0  0  0  0  0  0  0
  114.2699   50.8385   16.1320 C   0  0  0  0  0  0  0  0  0  0  0  0
  114.6624   49.5835   15.5650 O   0  0  0  0  0  0  0  0  0  0  0  0
  113.6907   50.7122   17.5451 C   0  0  0  0  0  0  0  0  0  0  0  0
  116.5129   50.5870   17.4988 H   0  0  0  0  0  0  0  0  0  0  0  0
  115.3223   49.1622   16.1377 H   0  0  0  0  0  0  0  0  0  0  0  0
  112.2574   50.4280   17.5054 N   0  0  0  0  0  0  0  0  0  0  0  0
  111.2650   51.2305   16.9902 C   0  0  0  0  0  0  0  0  0  0  0  0
  110.1125   50.6559   17.1248 N   0  0  0  0  0  0  0  0  0  0  0  0
  110.2813   49.4510   17.7311 C   0  0  0  0  0  0  0  0  0  0  0  0
  109.4188   48.3945   18.1332 C   0  0  0  0  0  0  0  0  0  0  0  0
  108.0519   48.4806   17.9125 N   0  0  0  0  0  0  0  0  0  0  0  0
  109.9576   47.3019   18.7333 N   0  0  0  0  0  0  0  0  0  0  0  0
  111.2738   47.2003   18.9522 C   0  0  0  0  0  0  0  0  0  0  0  0
  112.1167   48.1727   18.5874 N   0  0  0  0  0  0  0  0  0  0  0  0
  111.6674   49.2968   17.9832 C   0  0  0  0  0  0  0  0  0  0  0  0
  107.6730   49.2778   17.4765 H   0  0  0  0  0  0  0  0  0  0  0  0
  107.4608   47.7445   18.1918 H   0  0  0  0  0  0  0  0  0  0  0  0
  114.3602   54.0287   17.0023 C   0  0  0  0  0  0  0  0  0  0  0  0
  114.6749   54.2366   15.6276 O   0  0  0  0  0  0  0  0  0  0  0  0
  113.3247   54.6463   14.8123 P   0  0  0  0  0  0  0  0  0  0  0  0
  112.6362   55.8097   15.4339 O   0  0  0  0  0  0  0  0  0  0  0  0
  113.7362   55.0501   13.3049 O   0  0  0  0  0  0  0  0  0  0  0  0
  112.9407   55.2966   12.8076 H   0  0  0  0  0  0  0  0  0  0  0  0
  112.3105   53.3783   14.8317 O   0  0  0  0  0  0  0  0  0  0  0  0
  111.6205   53.1847   13.3741 P   0  0  0  0  0  0  0  0  0  0  0  0
  110.5690   52.1396   13.4746 O   0  0  0  0  0  0  0  0  0  0  0  0
  112.7489   52.6900   12.3337 O   0  0  0  0  0  0  0  0  0  0  0  0
  112.3505   52.5700   11.4574 H   0  0  0  0  0  0  0  0  0  0  0  0
  111.0034   54.6053   12.8583 O   0  0  0  0  0  0  0  0  0  0  0  0
  109.4856   54.8253   13.4054 P   0  0  0  0  0  0  0  0  0  0  0  0
  109.2158   56.2864   13.4951 O   0  0  0  0  0  0  0  0  0  0  0  0
  108.4228   54.1536   12.3950 O   0  0  0  0  0  0  0  0  0  0  0  0
  109.3431   54.1543   14.8641 O   0  0  0  0  0  0  0  0  0  0  0  0
  107.5240   54.2918   12.7325 H   0  0  0  0  0  0  0  0  0  0  0  0
  108.4396   54.2838   15.1927 H   0  0  0  0  0  0  0  0  0  0  0  0
 34 35  2  0  0  0
 34 36  1  0  0  0
 34 37  1  0  0  0
 34 33  1  0  0  0
 29 30  2  0  0  0
 29 31  1  0  0  0
 29 33  1  0  0  0
 29 28  1  0  0  0
 24 25  2  0  0  0
 24 26  1  0  0  0
 24 28  1  0  0  0
 24 23  1  0  0  0
 23 22  1  0  0  0
 22  1  1  0  0  0
  1  2  1  0  0  0
  1  3  1  0  0  0
  2  7  1  0  0  0
  3  4  1  0  0  0
  3  5  1  0  0  0
  5  6  1  0  0  0
  5  7  1  0  0  0
  7 10  1  0  0  0
 10 11  1  0  0  0
 10 19  1  0  0  0
 11 12  2  0  0  0
 12 13  1  0  0  0
 13 14  1  0  0  0
 13 19  2  0  0  0
 14 15  1  0  0  0
 14 16  2  0  0  0
 16 17  1  0  0  0
 17 18  2  0  0  0
 18 19  1  0  0  0
 36 38  1  0  0  0
 37 39  1  0  0  0
 31 32  1  0  0  0
 26 27  1  0  0  0
  4  8  1  0  0  0
  6  9  1  0  0  0
 15 20  1  0  0  0
 15 21  1  0  0  0
M  END
> <minimizedAffinity>
-7.34538

$$$$
2HMU_ATP_A_601


 39 41  0  0  0  0  0  0  0  0999 V2000
  113.3826   52.2696   16.9480 C   0  0  0  0  0  0  0  0  0  0  0  0
  113.0581   52.8320   15.6439 O   0  0  0  0  0  0  0  0  0  0  0  0
  112.6825   53.1689   18.0155 C   0  0  0  0  0  0  0  0  0  0  0  0
  113.6054   54.1192   18.5760 O   0  0  0  0  0  0  0  0  0  0  0  0
  111.5597   53.8372   17.2315 C   0  0  0  0  0  0  0  0  0  0  0  0
  111.1617   55.0935   17.7916 O   0  0  0  0  0  0  0  0  0  0  0  0
  112.1584   53.9608   15.8263 C   0  0  0  0  0  0  0  0  0  0  0  0
  113.9860   54.6583   17.8651 H   0  0  0  0  0  0  0  0  0  0  0  0
  111.9272   55.6882   17.8283 H   0  0  0  0  0  0  0  0  0  0  0  0
  111.1147   53.9402   14.8033 N   0  0  0  0  0  0  0  0  0  0  0  0
  110.7324   52.8697   14.0274 C   0  0  0  0  0  0  0  0  0  0  0  0
  109.7738   53.2175   13.2294 N   0  0  0  0  0  0  0  0  0  0  0  0
  109.4734   54.5272   13.4350 C   0  0  0  0  0  0  0  0  0  0  0  0
  108.5402   55.4468   12.8824 C   0  0  0  0  0  0  0  0  0  0  0  0
  107.6619   55.0439   11.8870 N   0  0  0  0  0  0  0  0  0  0  0  0
  108.5238   56.7223   13.3481 N   0  0  0  0  0  0  0  0  0  0  0  0
  109.3619   57.1281   14.3092 C   0  0  0  0  0  0  0  0  0  0  0  0
  110.2527   56.2921   14.8539 N   0  0  0  0  0  0  0  0  0  0  0  0
  110.3389   55.0034   14.4511 C   0  0  0  0  0  0  0  0  0  0  0  0
  107.6832   54.1165   11.5575 H   0  0  0  0  0  0  0  0  0  0  0  0
  107.0172   55.6855   11.5102 H   0  0  0  0  0  0  0  0  0  0  0  0
  112.8896   50.8186   16.9814 C   0  0  0  0  0  0  0  0  0  0  0  0
  113.9615   49.9313   17.2912 O   0  0  0  0  0  0  0  0  0  0  0  0
  113.3791   48.6131   18.0521 P   0  0  0  0  0  0  0  0  0  0  0  0
  112.9780   47.5521   17.0891 O   0  0  0  0  0  0  0  0  0  0  0  0
  114.5357   48.0169   19.0068 O   0  0  0  0  0  0  0  0  0  0  0  0
  114.2021   47.2306   19.4665 H   0  0  0  0  0  0  0  0  0  0  0  0
  112.0706   49.0523   18.9075 O   0  0  0  0  0  0  0  0  0  0  0  0
  111.3048   47.7402   19.4817 P   0  0  0  0  0  0  0  0  0  0  0  0
  112.2952   46.6483   19.6684 O   0  0  0  0  0  0  0  0  0  0  0  0
  110.2089   47.2694   18.3963 O   0  0  0  0  0  0  0  0  0  0  0  0
  109.7430   46.4853   18.7265 H   0  0  0  0  0  0  0  0  0  0  0  0
  110.5483   48.1062   20.8813 O   0  0  0  0  0  0  0  0  0  0  0  0
  111.5469   48.8784   21.9099 P   0  0  0  0  0  0  0  0  0  0  0  0
  111.0603   48.6655   23.3005 O   0  0  0  0  0  0  0  0  0  0  0  0
  113.0452   48.2953   21.7803 O   0  0  0  0  0  0  0  0  0  0  0  0
  111.5486   50.4538   21.5684 O   0  0  0  0  0  0  0  0  0  0  0  0
  113.6288   48.7635   22.3976 H   0  0  0  0  0  0  0  0  0  0  0  0
  112.1428   50.9165   22.1798 H   0  0  0  0  0  0  0  0  0  0  0  0
 34 35  2  0  0  0
 34 36  1  0  0  0
 34 37  1  0  0  0
 34 33  1  0  0  0
 29 30  2  0  0  0
 29 31  1  0  0  0
 29 33  1  0  0  0
 29 28  1  0  0  0
 24 25  2  0  0  0
 24 26  1  0  0  0
 24 28  1  0  0  0
 24 23  1  0  0  0
 23 22  1  0  0  0
 22  1  1  0  0  0
  1  2  1  0  0  0
  1  3  1  0  0  0
  2  7  1  0  0  0
  3  4  1  0  0  0
  3  5  1  0  0  0
  5  6  1  0  0  0
  5  7  1  0  0  0
  7 10  1  0  0  0
 10 11  1  0  0  0
 10 19  1  0  0  0
 11 12  2  0  0  0
 12 13  1  0  0  0
 13 14  1  0  0  0
 13 19  2  0  0  0
 14 15  1  0  0  0
 14 16  2  0  0  0
 16 17  1  0  0  0
 17 18  2  0  0  0
 18 19  1  0  0  0
 36 38  1  0  0  0
 37 39  1  0  0  0
 31 32  1  0  0  0
 26 27  1  0  0  0
  4  8  1  0  0  0
  6  9  1  0  0  0
 15 20  1  0  0  0
 15 21  1  0  0  0
M  END
> <minimizedAffinity>
-7.24987

$$$$
2HMU_ATP_A_601


 39 41  0  0  0  0  0  0  0  0999 V2000
  112.6931   55.3699   15.6704 C   0  0  0  0  0  0  0  0  0  0  0  0
  112.1490   55.3410   14.3193 O   0  0  0  0  0  0  0  0  0  0  0  0
  111.8696   56.4306   16.4674 C   0  0  0  0  0  0  0  0  0  0  0  0
  112.5663   57.6876   16.5270 O   0  0  0  0  0  0  0  0  0  0  0  0
  110.5642   56.5225   15.6865 C   0  0  0  0  0  0  0  0  0  0  0  0
  109.9088   57.7856   15.8455 O   0  0  0  0  0  0  0  0  0  0  0  0
  111.0136   56.2480   14.2473 C   0  0  0  0  0  0  0  0  0  0  0  0
  112.7510   57.9978   15.6267 H   0  0  0  0  0  0  0  0  0  0  0  0
  110.5044   58.4969   15.5622 H   0  0  0  0  0  0  0  0  0  0  0  0
  109.9380   55.6434   13.4638 N   0  0  0  0  0  0  0  0  0  0  0  0
  109.8356   54.3292   13.0681 C   0  0  0  0  0  0  0  0  0  0  0  0
  108.7475   54.1517   12.3891 N   0  0  0  0  0  0  0  0  0  0  0  0
  108.0773   55.3311   12.3016 C   0  0  0  0  0  0  0  0  0  0  0  0
  106.8590   55.7571   11.7047 C   0  0  0  0  0  0  0  0  0  0  0  0
  106.0606   54.8553   11.0164 N   0  0  0  0  0  0  0  0  0  0  0  0
  106.4922   57.0592   11.8231 N   0  0  0  0  0  0  0  0  0  0  0  0
  107.2483   57.9428   12.4853 C   0  0  0  0  0  0  0  0  0  0  0  0
  108.3999   57.5796   13.0606 N   0  0  0  0  0  0  0  0  0  0  0  0
  108.8428   56.3030   12.9930 C   0  0  0  0  0  0  0  0  0  0  0  0
  106.3372   53.9137   10.9373 H   0  0  0  0  0  0  0  0  0  0  0  0
  105.2175   55.1568   10.6072 H   0  0  0  0  0  0  0  0  0  0  0  0
  112.5772   53.9619   16.2650 C   0  0  0  0  0  0  0  0  0  0  0  0
  112.1065   53.0402   15.2847 O   0  0  0  0  0  0  0  0  0  0  0  0
  112.3346   51.5153   15.8122 P   0  0  0  0  0  0  0  0  0  0  0  0
  112.1352   50.5194   14.7249 O   0  0  0  0  0  0  0  0  0  0  0  0
  113.8500   51.3781   16.3503 O   0  0  0  0  0  0  0  0  0  0  0  0
  113.9997   50.4739   16.6679 H   0  0  0  0  0  0  0  0  0  0  0  0
  111.2569   51.2142   16.9890 O   0  0  0  0  0  0  0  0  0  0  0  0
  111.8440   50.1076   18.0228 P   0  0  0  0  0  0  0  0  0  0  0  0
  112.9329   50.7262   18.8225 O   0  0  0  0  0  0  0  0  0  0  0  0
  112.4549   48.8823   17.1707 O   0  0  0  0  0  0  0  0  0  0  0  0
  112.8098   48.2127   17.7762 H   0  0  0  0  0  0  0  0  0  0  0  0
  110.6445   49.5486   18.9787 O   0  0  0  0  0  0  0  0  0  0  0  0
  111.0005   48.0762   19.5758 P   0  0  0  0  0  0  0  0  0  0  0  0
  110.4454   47.0412   18.6612 O   0  0  0  0  0  0  0  0  0  0  0  0
  112.5987   47.8852   19.6804 O   0  0  0  0  0  0  0  0  0  0  0  0
  110.3409   47.9210   21.0384 O   0  0  0  0  0  0  0  0  0  0  0  0
  112.7966   47.0051   20.0371 H   0  0  0  0  0  0  0  0  0  0  0  0
  110.5514   47.0445   21.3968 H   0  0  0  0  0  0  0  0  0  0  0  0
 34 35  2  0  0  0
 34 36  1  0  0  0
 34 37  1  0  0  0
 34 33  1  0  0  0
 29 30  2  0  0  0
 29 31  1  0  0  0
 29 33  1  0  0  0
 29 28  1  0  0  0
 24 25  2  0  0  0
 24 26  1  0  0  0
 24 28  1  0  0  0
 24 23  1  0  0  0
 23 22  1  0  0  0
 22  1  1  0  0  0
  1  2  1  0  0  0
  1  3  1  0  0  0
  2  7  1  0  0  0
  3  4  1  0  0  0
  3  5  1  0  0  0
  5  6  1  0  0  0
  5  7  1  0  0  0
  7 10  1  0  0  0
 10 11  1  0  0  0
 10 19  1  0  0  0
 11 12  2  0  0  0
 12 13  1  0  0  0
 13 14  1  0  0  0
 13 19  2  0  0  0
 14 15  1  0  0  0
 14 16  2  0  0  0
 16 17  1  0  0  0
 17 18  2  0  0  0
 18 19  1  0  0  0
 36 38  1  0  0  0
 37 39  1  0  0  0
 31 32  1  0  0  0
 26 27  1  0  0  0
  4  8  1  0  0  0
  6  9  1  0  0  0
 15 20  1  0  0  0
 15 21  1  0  0  0
M  END
> <minimizedAffinity>
-7.19264

$$$$
