1BZC_TPI_A_902


 35 36  0  0  0  0  0  0  0  0999 V2000
  -20.9829   55.9294   14.9611 C   0  0  0  0  0  0  0  0  0  0  0  0
  -20.7153   57.3081   14.8074 C   0  0  0  0  0  0  0  0  0  0  0  0
  -19.7937   57.9390   15.6627 C   0  0  0  0  0  0  0  0  0  0  0  0
  -19.1494   57.2232   16.6706 C   0  0  0  0  0  0  0  0  0  0  0  0
  -18.7930   55.1644   17.8823 C   0  0  0  0  0  0  0  0  0  0  0  0
  -19.0461   53.8030   18.0864 C   0  0  0  0  0  0  0  0  0  0  0  0
  -19.9403   53.1248   17.2249 C   0  0  0  0  0  0  0  0  0  0  0  0
  -20.5879   53.8232   16.1763 C   0  0  0  0  0  0  0  0  0  0  0  0
  -20.3333   55.1977   15.9840 C   0  0  0  0  0  0  0  0  0  0  0  0
  -19.4244   55.8617   16.8403 C   0  0  0  0  0  0  0  0  0  0  0  0
  -18.3492   53.0852   19.2320 C   0  0  0  0  0  0  0  0  0  0  0  0
  -18.1138   53.7260   20.2477 O   0  0  0  0  0  0  0  0  0  0  0  0
  -17.9807   51.6732   19.1006 N   0  0  0  0  0  0  0  0  0  0  0  0
  -18.1701   51.1485   18.2894 H   0  0  0  0  0  0  0  0  0  0  0  0
  -17.3054   51.1007   20.2756 C   0  0  0  0  0  0  0  0  0  0  0  0
  -15.7963   51.1561   20.2850 C   0  0  0  0  0  0  0  0  0  0  0  0
  -15.1624   52.3476   20.8093 N   0  0  0  0  0  0  0  0  0  0  0  0
  -15.1191   50.2172   19.8975 O   0  0  0  0  0  0  0  0  0  0  0  0
  -15.7133   53.1019   21.1205 H   0  0  0  0  0  0  0  0  0  0  0  0
  -14.1806   52.4034   20.8547 H   0  0  0  0  0  0  0  0  0  0  0  0
  -17.7320   49.6319   20.4910 C   0  0  0  0  0  0  0  0  0  0  0  0
  -18.8210   49.5061   21.5669 C   0  0  0  0  0  0  0  0  0  0  0  0
  -20.1600   49.4033   20.9000 C   0  0  0  0  0  0  0  0  0  0  0  0
  -20.6698   50.5568   20.4778 O   0  0  0  0  0  0  0  0  0  0  0  0
  -20.7548   48.3354   20.7591 O   0  0  0  0  0  0  0  0  0  0  0  0
  -20.3683   47.5396   21.0677 H   0  0  0  0  0  0  0  0  0  0  0  0
  -21.4499   58.1626   13.7714 C   0  0  0  0  0  0  0  0  0  0  0  0
  -21.7322   59.3571   14.3419 F   0  0  0  0  0  0  0  0  0  0  0  0
  -22.5894   57.5513   13.4422 F   0  0  0  0  0  0  0  0  0  0  0  0
  -20.5508   58.4416   12.2460 P   0  0  0  0  0  0  0  0  0  0  0  0
  -21.3120   59.5339   11.3805 O   0  0  0  0  0  0  0  0  0  0  0  0
  -19.1953   58.9098   12.6014 O   0  0  0  0  0  0  0  0  0  0  0  0
  -20.4613   57.0793   11.4375 O   0  0  0  0  0  0  0  0  0  0  0  0
  -20.8276   59.6869   10.5543 H   0  0  0  0  0  0  0  0  0  0  0  0
  -18.6856   59.0689   11.7916 H   0  0  0  0  0  0  0  0  0  0  0  0
 30 31  1  0  0  0
 30 32  1  0  0  0
 30 33  2  0  0  0
 30 27  1  0  0  0
 27 28  1  0  0  0
 27 29  1  0  0  0
 27  2  1  0  0  0
  1  2  2  0  0  0
  1  9  1  0  0  0
  2  3  1  0  0  0
  3  4  2  0  0  0
  4 10  1  0  0  0
  5  6  2  0  0  0
  5 10  1  0  0  0
  6  7  1  0  0  0
  6 11  1  0  0  0
  7  8  2  0  0  0
  8  9  1  0  0  0
  9 10  2  0  0  0
 11 12  2  0  0  0
 11 13  1  0  0  0
 13 15  1  0  0  0
 15 16  1  0  0  0
 15 21  1  0  0  0
 16 17  1  0  0  0
 16 18  2  0  0  0
 21 22  1  0  0  0
 22 23  1  0  0  0
 23 24  2  0  0  0
 23 25  1  0  0  0
 31 34  1  0  0  0
 32 35  1  0  0  0
 13 14  1  0  0  0
 17 19  1  0  0  0
 17 20  1  0  0  0
 25 26  1  0  0  0
M  END
> <minimizedAffinity>
-9.61969

$$$$
1BZC_TPI_A_902


 35 36  0  0  0  0  0  0  0  0999 V2000
  -21.0308   56.0195   14.9654 C   0  0  0  0  0  0  0  0  0  0  0  0
  -20.7544   57.3978   14.8236 C   0  0  0  0  0  0  0  0  0  0  0  0
  -19.8223   58.0135   15.6785 C   0  0  0  0  0  0  0  0  0  0  0  0
  -19.1760   57.2831   16.6746 C   0  0  0  0  0  0  0  0  0  0  0  0
  -18.8258   55.2098   17.8632 C   0  0  0  0  0  0  0  0  0  0  0  0
  -19.0872   53.8483   18.0555 C   0  0  0  0  0  0  0  0  0  0  0  0
  -19.9923   53.1851   17.1937 C   0  0  0  0  0  0  0  0  0  0  0  0
  -20.6423   53.8986   16.1568 C   0  0  0  0  0  0  0  0  0  0  0  0
  -20.3793   55.2730   15.9763 C   0  0  0  0  0  0  0  0  0  0  0  0
  -19.4595   55.9220   16.8327 C   0  0  0  0  0  0  0  0  0  0  0  0
  -18.3873   53.1141   19.1889 C   0  0  0  0  0  0  0  0  0  0  0  0
  -17.5924   53.7454   19.8725 O   0  0  0  0  0  0  0  0  0  0  0  0
  -18.6708   51.6978   19.4345 N   0  0  0  0  0  0  0  0  0  0  0  0
  -19.3119   51.1831   18.8929 H   0  0  0  0  0  0  0  0  0  0  0  0
  -17.9224   51.1047   20.5537 C   0  0  0  0  0  0  0  0  0  0  0  0
  -17.2822   49.7598   20.3050 C   0  0  0  0  0  0  0  0  0  0  0  0
  -18.1474   48.6039   20.1971 N   0  0  0  0  0  0  0  0  0  0  0  0
  -16.0755   49.6420   20.1623 O   0  0  0  0  0  0  0  0  0  0  0  0
  -19.1199   48.7045   20.3131 H   0  0  0  0  0  0  0  0  0  0  0  0
  -17.7633   47.7174   20.0078 H   0  0  0  0  0  0  0  0  0  0  0  0
  -18.8161   50.9850   21.8079 C   0  0  0  0  0  0  0  0  0  0  0  0
  -18.4601   52.0412   22.8648 C   0  0  0  0  0  0  0  0  0  0  0  0
  -16.9690   52.1091   23.0078 C   0  0  0  0  0  0  0  0  0  0  0  0
  -16.3976   51.0075   23.4860 O   0  0  0  0  0  0  0  0  0  0  0  0
  -16.3158   53.1102   22.7161 O   0  0  0  0  0  0  0  0  0  0  0  0
  -16.7486   53.8708   22.3813 H   0  0  0  0  0  0  0  0  0  0  0  0
  -21.4902   58.2678   13.8015 C   0  0  0  0  0  0  0  0  0  0  0  0
  -21.6803   59.4886   14.3541 F   0  0  0  0  0  0  0  0  0  0  0  0
  -22.6754   57.7129   13.5407 F   0  0  0  0  0  0  0  0  0  0  0  0
  -20.6508   58.4623   12.2297 P   0  0  0  0  0  0  0  0  0  0  0  0
  -19.1483   58.9064   12.4887 O   0  0  0  0  0  0  0  0  0  0  0  0
  -20.6969   57.1617   11.5305 O   0  0  0  0  0  0  0  0  0  0  0  0
  -21.3997   59.5677   11.3725 O   0  0  0  0  0  0  0  0  0  0  0  0
  -18.6915   59.0125   11.6396 H   0  0  0  0  0  0  0  0  0  0  0  0
  -20.2481   57.2389   10.6740 H   0  0  0  0  0  0  0  0  0  0  0  0
 30 31  1  0  0  0
 30 32  1  0  0  0
 30 33  2  0  0  0
 30 27  1  0  0  0
 27 28  1  0  0  0
 27 29  1  0  0  0
 27  2  1  0  0  0
  1  2  2  0  0  0
  1  9  1  0  0  0
  2  3  1  0  0  0
  3  4  2  0  0  0
  4 10  1  0  0  0
  5  6  2  0  0  0
  5 10  1  0  0  0
  6  7  1  0  0  0
  6 11  1  0  0  0
  7  8  2  0  0  0
  8  9  1  0  0  0
  9 10  2  0  0  0
 11 12  2  0  0  0
 11 13  1  0  0  0
 13 15  1  0  0  0
 15 16  1  0  0  0
 15 21  1  0  0  0
 16 17  1  0  0  0
 16 18  2  0  0  0
 21 22  1  0  0  0
 22 23  1  0  0  0
 23 24  2  0  0  0
 23 25  1  0  0  0
 31 34  1  0  0  0
 32 35  1  0  0  0
 13 14  1  0  0  0
 17 19  1  0  0  0
 17 20  1  0  0  0
 25 26  1  0  0  0
M  END
> <minimizedAffinity>
-9.10648

$$$$
1BZC_TPI_A_902


 35 36  0  0  0  0  0  0  0  0999 V2000
  -19.8109   56.9965   15.3822 C   0  0  0  0  0  0  0  0  0  0  0  0
  -20.6646   56.8366   14.2679 C   0  0  0  0  0  0  0  0  0  0  0  0
  -21.4696   55.6875   14.1655 C   0  0  0  0  0  0  0  0  0  0  0  0
  -21.4262   54.6960   15.1444 C   0  0  0  0  0  0  0  0  0  0  0  0
  -20.5119   53.8150   17.1991 C   0  0  0  0  0  0  0  0  0  0  0  0
  -19.6631   53.9201   18.3070 C   0  0  0  0  0  0  0  0  0  0  0  0
  -18.8636   55.0769   18.4636 C   0  0  0  0  0  0  0  0  0  0  0  0
  -18.9088   56.1112   17.4967 C   0  0  0  0  0  0  0  0  0  0  0  0
  -19.7609   55.9921   16.3784 C   0  0  0  0  0  0  0  0  0  0  0  0
  -20.5686   54.8393   16.2408 C   0  0  0  0  0  0  0  0  0  0  0  0
  -19.6236   52.7848   19.3184 C   0  0  0  0  0  0  0  0  0  0  0  0
  -20.6014   52.0526   19.3925 O   0  0  0  0  0  0  0  0  0  0  0  0
  -18.4435   52.5942   20.1656 N   0  0  0  0  0  0  0  0  0  0  0  0
  -17.6506   53.1751   20.1097 H   0  0  0  0  0  0  0  0  0  0  0  0
  -18.5359   51.4668   21.1063 C   0  0  0  0  0  0  0  0  0  0  0  0
  -18.3126   51.7812   22.5663 C   0  0  0  0  0  0  0  0  0  0  0  0
  -19.1524   52.7873   23.1818 N   0  0  0  0  0  0  0  0  0  0  0  0
  -17.4762   51.1873   23.2282 O   0  0  0  0  0  0  0  0  0  0  0  0
  -19.8254   53.2633   22.6435 H   0  0  0  0  0  0  0  0  0  0  0  0
  -19.0505   52.9954   24.1386 H   0  0  0  0  0  0  0  0  0  0  0  0
  -17.5614   50.3374   20.7052 C   0  0  0  0  0  0  0  0  0  0  0  0
  -16.4761   50.8366   19.7398 C   0  0  0  0  0  0  0  0  0  0  0  0
  -15.1569   50.8561   20.4522 C   0  0  0  0  0  0  0  0  0  0  0  0
  -14.1795   50.1871   19.8475 O   0  0  0  0  0  0  0  0  0  0  0  0
  -14.9857   51.4372   21.5232 O   0  0  0  0  0  0  0  0  0  0  0  0
  -15.6951   51.8999   21.9238 H   0  0  0  0  0  0  0  0  0  0  0  0
  -20.6969   57.8524   13.1233 C   0  0  0  0  0  0  0  0  0  0  0  0
  -20.7810   57.1659   11.9598 F   0  0  0  0  0  0  0  0  0  0  0  0
  -19.5615   58.5533   13.1401 F   0  0  0  0  0  0  0  0  0  0  0  0
  -22.0398   59.0372   13.2007 P   0  0  0  0  0  0  0  0  0  0  0  0
  -23.4233   58.2595   13.2524 O   0  0  0  0  0  0  0  0  0  0  0  0
  -21.8529   59.8506   14.4199 O   0  0  0  0  0  0  0  0  0  0  0  0
  -21.9905   59.9652   11.9147 O   0  0  0  0  0  0  0  0  0  0  0  0
  -24.1520   58.8984   13.2944 H   0  0  0  0  0  0  0  0  0  0  0  0
  -22.5684   60.5021   14.4866 H   0  0  0  0  0  0  0  0  0  0  0  0
 30 31  1  0  0  0
 30 32  1  0  0  0
 30 33  2  0  0  0
 30 27  1  0  0  0
 27 28  1  0  0  0
 27 29  1  0  0  0
 27  2  1  0  0  0
  1  2  2  0  0  0
  1  9  1  0  0  0
  2  3  1  0  0  0
  3  4  2  0  0  0
  4 10  1  0  0  0
  5  6  2  0  0  0
  5 10  1  0  0  0
  6  7  1  0  0  0
  6 11  1  0  0  0
  7  8  2  0  0  0
  8  9  1  0  0  0
  9 10  2  0  0  0
 11 12  2  0  0  0
 11 13  1  0  0  0
 13 15  1  0  0  0
 15 16  1  0  0  0
 15 21  1  0  0  0
 16 17  1  0  0  0
 16 18  2  0  0  0
 21 22  1  0  0  0
 22 23  1  0  0  0
 23 24  2  0  0  0
 23 25  1  0  0  0
 31 34  1  0  0  0
 32 35  1  0  0  0
 13 14  1  0  0  0
 17 19  1  0  0  0
 17 20  1  0  0  0
 25 26  1  0  0  0
M  END
> <minimizedAffinity>
-8.81759

$$$$
1BZC_TPI_A_902


 35 36  0  0  0  0  0  0  0  0999 V2000
  -21.0469   55.8005   14.9296 C   0  0  0  0  0  0  0  0  0  0  0  0
  -20.8119   57.1703   14.6757 C   0  0  0  0  0  0  0  0  0  0  0  0
  -19.9024   57.8822   15.4787 C   0  0  0  0  0  0  0  0  0  0  0  0
  -19.2383   57.2559   16.5323 C   0  0  0  0  0  0  0  0  0  0  0  0
  -18.8301   55.2987   17.8874 C   0  0  0  0  0  0  0  0  0  0  0  0
  -19.0508   53.9501   18.1904 C   0  0  0  0  0  0  0  0  0  0  0  0
  -19.9319   53.1912   17.3844 C   0  0  0  0  0  0  0  0  0  0  0  0
  -20.5990   53.7971   16.2915 C   0  0  0  0  0  0  0  0  0  0  0  0
  -20.3771   55.1596   15.9994 C   0  0  0  0  0  0  0  0  0  0  0  0
  -19.4810   55.9043   16.8010 C   0  0  0  0  0  0  0  0  0  0  0  0
  -18.3335   53.3330   19.3812 C   0  0  0  0  0  0  0  0  0  0  0  0
  -18.4009   52.1190   19.5212 O   0  0  0  0  0  0  0  0  0  0  0  0
  -17.5934   54.1837   20.3167 N   0  0  0  0  0  0  0  0  0  0  0  0
  -17.5298   55.1603   20.2095 H   0  0  0  0  0  0  0  0  0  0  0  0
  -16.9528   53.4645   21.4288 C   0  0  0  0  0  0  0  0  0  0  0  0
  -17.5090   53.7167   22.8100 C   0  0  0  0  0  0  0  0  0  0  0  0
  -18.3997   54.8439   22.9894 N   0  0  0  0  0  0  0  0  0  0  0  0
  -17.2511   52.9792   23.7481 O   0  0  0  0  0  0  0  0  0  0  0  0
  -18.6043   55.4354   22.2295 H   0  0  0  0  0  0  0  0  0  0  0  0
  -18.8008   55.0188   23.8713 H   0  0  0  0  0  0  0  0  0  0  0  0
  -15.4352   53.7504   21.4642 C   0  0  0  0  0  0  0  0  0  0  0  0
  -14.6348   52.6756   20.7137 C   0  0  0  0  0  0  0  0  0  0  0  0
  -15.2636   51.3363   20.9567 C   0  0  0  0  0  0  0  0  0  0  0  0
  -15.4370   50.5892   19.8703 O   0  0  0  0  0  0  0  0  0  0  0  0
  -15.6065   50.9533   22.0747 O   0  0  0  0  0  0  0  0  0  0  0  0
  -15.4705   51.5038   22.8206 H   0  0  0  0  0  0  0  0  0  0  0  0
  -21.5696   57.9307   13.5846 C   0  0  0  0  0  0  0  0  0  0  0  0
  -22.0991   59.0437   14.1440 F   0  0  0  0  0  0  0  0  0  0  0  0
  -22.5552   57.1558   13.1277 F   0  0  0  0  0  0  0  0  0  0  0  0
  -20.5810   58.4035   12.1661 P   0  0  0  0  0  0  0  0  0  0  0  0
  -21.3255   59.5576   11.3688 O   0  0  0  0  0  0  0  0  0  0  0  0
  -19.2730   58.8750   12.6658 O   0  0  0  0  0  0  0  0  0  0  0  0
  -20.3813   57.1409   11.2261 O   0  0  0  0  0  0  0  0  0  0  0  0
  -20.7925   59.8155   10.6005 H   0  0  0  0  0  0  0  0  0  0  0  0
  -18.7163   59.1381   11.9163 H   0  0  0  0  0  0  0  0  0  0  0  0
 30 31  1  0  0  0
 30 32  1  0  0  0
 30 33  2  0  0  0
 30 27  1  0  0  0
 27 28  1  0  0  0
 27 29  1  0  0  0
 27  2  1  0  0  0
  1  2  2  0  0  0
  1  9  1  0  0  0
  2  3  1  0  0  0
  3  4  2  0  0  0
  4 10  1  0  0  0
  5  6  2  0  0  0
  5 10  1  0  0  0
  6  7  1  0  0  0
  6 11  1  0  0  0
  7  8  2  0  0  0
  8  9  1  0  0  0
  9 10  2  0  0  0
 11 12  2  0  0  0
 11 13  1  0  0  0
 13 15  1  0  0  0
 15 16  1  0  0  0
 15 21  1  0  0  0
 16 17  1  0  0  0
 16 18  2  0  0  0
 21 22  1  0  0  0
 22 23  1  0  0  0
 23 24  2  0  0  0
 23 25  1  0  0  0
 31 34  1  0  0  0
 32 35  1  0  0  0
 13 14  1  0  0  0
 17 19  1  0  0  0
 17 20  1  0  0  0
 25 26  1  0  0  0
M  END
> <minimizedAffinity>
-8.76217

$$$$
1BZC_TPI_A_902


 35 36  0  0  0  0  0  0  0  0999 V2000
  -21.1326   55.7415   14.9297 C   0  0  0  0  0  0  0  0  0  0  0  0
  -20.8314   57.1009   14.6900 C   0  0  0  0  0  0  0  0  0  0  0  0
  -19.8509   57.7451   15.4661 C   0  0  0  0  0  0  0  0  0  0  0  0
  -19.1803   57.0622   16.4796 C   0  0  0  0  0  0  0  0  0  0  0  0
  -18.8275   55.0588   17.7819 C   0  0  0  0  0  0  0  0  0  0  0  0
  -19.1112   53.7189   18.0704 C   0  0  0  0  0  0  0  0  0  0  0  0
  -20.0661   53.0263   17.2893 C   0  0  0  0  0  0  0  0  0  0  0  0
  -20.7425   53.6898   16.2362 C   0  0  0  0  0  0  0  0  0  0  0  0
  -20.4565   55.0434   15.9588 C   0  0  0  0  0  0  0  0  0  0  0  0
  -19.4875   55.7211   16.7348 C   0  0  0  0  0  0  0  0  0  0  0  0
  -18.3814   53.0394   19.2188 C   0  0  0  0  0  0  0  0  0  0  0  0
  -18.1950   53.6882   20.2397 O   0  0  0  0  0  0  0  0  0  0  0  0
  -17.9252   51.6536   19.0841 N   0  0  0  0  0  0  0  0  0  0  0  0
  -18.0748   51.1225   18.2688 H   0  0  0  0  0  0  0  0  0  0  0  0
  -17.2263   51.1177   20.2626 C   0  0  0  0  0  0  0  0  0  0  0  0
  -18.0720   50.8285   21.4798 C   0  0  0  0  0  0  0  0  0  0  0  0
  -19.5084   50.9621   21.3577 N   0  0  0  0  0  0  0  0  0  0  0  0
  -17.5744   50.4585   22.5315 O   0  0  0  0  0  0  0  0  0  0  0  0
  -19.9045   51.2610   20.5073 H   0  0  0  0  0  0  0  0  0  0  0  0
  -20.0892   50.7541   22.1250 H   0  0  0  0  0  0  0  0  0  0  0  0
  -16.0759   52.0555   20.6905 C   0  0  0  0  0  0  0  0  0  0  0  0
  -14.7300   51.6155   20.0954 C   0  0  0  0  0  0  0  0  0  0  0  0
  -13.7058   51.5565   21.1889 C   0  0  0  0  0  0  0  0  0  0  0  0
  -12.5908   50.8996   20.8823 O   0  0  0  0  0  0  0  0  0  0  0  0
  -13.8805   52.0669   22.2948 O   0  0  0  0  0  0  0  0  0  0  0  0
  -14.6777   52.5233   22.4795 H   0  0  0  0  0  0  0  0  0  0  0  0
  -21.5895   57.9237   13.6453 C   0  0  0  0  0  0  0  0  0  0  0  0
  -22.0481   59.0441   14.2506 F   0  0  0  0  0  0  0  0  0  0  0  0
  -22.6244   57.2066   13.2035 F   0  0  0  0  0  0  0  0  0  0  0  0
  -20.6281   58.3893   12.2059 P   0  0  0  0  0  0  0  0  0  0  0  0
  -20.4818   57.1340   11.2442 O   0  0  0  0  0  0  0  0  0  0  0  0
  -21.3419   59.4883   11.5238 O   0  0  0  0  0  0  0  0  0  0  0  0
  -19.1936   58.8800   12.6739 O   0  0  0  0  0  0  0  0  0  0  0  0
  -19.9619   57.3832   10.4642 H   0  0  0  0  0  0  0  0  0  0  0  0
  -20.8417   59.7605   10.7385 H   0  0  0  0  0  0  0  0  0  0  0  0
 30 31  1  0  0  0
 30 32  1  0  0  0
 30 33  2  0  0  0
 30 27  1  0  0  0
 27 28  1  0  0  0
 27 29  1  0  0  0
 27  2  1  0  0  0
  1  2  2  0  0  0
  1  9  1  0  0  0
  2  3  1  0  0  0
  3  4  2  0  0  0
  4 10  1  0  0  0
  5  6  2  0  0  0
  5 10  1  0  0  0
  6  7  1  0  0  0
  6 11  1  0  0  0
  7  8  2  0  0  0
  8  9  1  0  0  0
  9 10  2  0  0  0
 11 12  2  0  0  0
 11 13  1  0  0  0
 13 15  1  0  0  0
 15 16  1  0  0  0
 15 21  1  0  0  0
 16 17  1  0  0  0
 16 18  2  0  0  0
 21 22  1  0  0  0
 22 23  1  0  0  0
 23 24  2  0  0  0
 23 25  1  0  0  0
 31 34  1  0  0  0
 32 35  1  0  0  0
 13 14  1  0  0  0
 17 19  1  0  0  0
 17 20  1  0  0  0
 25 26  1  0  0  0
M  END
> <minimizedAffinity>
-8.45945

$$$$
1BZC_TPI_A_902


 35 36  0  0  0  0  0  0  0  0999 V2000
  -21.0465   55.8182   14.9339 C   0  0  0  0  0  0  0  0  0  0  0  0
  -20.7930   57.1880   14.6986 C   0  0  0  0  0  0  0  0  0  0  0  0
  -19.8608   57.8722   15.4997 C   0  0  0  0  0  0  0  0  0  0  0  0
  -19.1921   57.2183   16.5335 C   0  0  0  0  0  0  0  0  0  0  0  0
  -18.7966   55.2330   17.8510 C   0  0  0  0  0  0  0  0  0  0  0  0
  -19.0349   53.8835   18.1355 C   0  0  0  0  0  0  0  0  0  0  0  0
  -19.9395   53.1519   17.3303 C   0  0  0  0  0  0  0  0  0  0  0  0
  -20.6120   53.7861   16.2569 C   0  0  0  0  0  0  0  0  0  0  0  0
  -20.3722   55.1494   15.9835 C   0  0  0  0  0  0  0  0  0  0  0  0
  -19.4529   55.8665   16.7840 C   0  0  0  0  0  0  0  0  0  0  0  0
  -18.3110   53.2356   19.3058 C   0  0  0  0  0  0  0  0  0  0  0  0
  -18.1485   52.0230   19.2755 O   0  0  0  0  0  0  0  0  0  0  0  0
  -17.8337   54.0563   20.4218 N   0  0  0  0  0  0  0  0  0  0  0  0
  -17.9556   55.0328   20.4527 H   0  0  0  0  0  0  0  0  0  0  0  0
  -17.1580   53.3073   21.4926 C   0  0  0  0  0  0  0  0  0  0  0  0
  -18.0188   52.8425   22.6430 C   0  0  0  0  0  0  0  0  0  0  0  0
  -18.3616   53.8053   23.6686 N   0  0  0  0  0  0  0  0  0  0  0  0
  -18.4485   51.7012   22.7005 O   0  0  0  0  0  0  0  0  0  0  0  0
  -18.0123   54.7243   23.6175 H   0  0  0  0  0  0  0  0  0  0  0  0
  -18.9439   53.5409   24.4171 H   0  0  0  0  0  0  0  0  0  0  0  0
  -15.9819   54.1229   22.0736 C   0  0  0  0  0  0  0  0  0  0  0  0
  -15.7377   55.4156   21.2810 C   0  0  0  0  0  0  0  0  0  0  0  0
  -16.3197   56.5722   22.0372 C   0  0  0  0  0  0  0  0  0  0  0  0
  -15.6175   57.6997   21.9713 O   0  0  0  0  0  0  0  0  0  0  0  0
  -17.3642   56.4897   22.6823 O   0  0  0  0  0  0  0  0  0  0  0  0
  -17.8358   55.6804   22.7087 H   0  0  0  0  0  0  0  0  0  0  0  0
  -21.5536   57.9781   13.6307 C   0  0  0  0  0  0  0  0  0  0  0  0
  -22.0124   59.1158   14.2027 F   0  0  0  0  0  0  0  0  0  0  0  0
  -22.5885   57.2469   13.2126 F   0  0  0  0  0  0  0  0  0  0  0  0
  -20.5951   58.4008   12.1762 P   0  0  0  0  0  0  0  0  0  0  0  0
  -20.4660   57.1224   11.2432 O   0  0  0  0  0  0  0  0  0  0  0  0
  -21.3018   59.4908   11.4724 O   0  0  0  0  0  0  0  0  0  0  0  0
  -19.1536   58.8882   12.6258 O   0  0  0  0  0  0  0  0  0  0  0  0
  -19.9476   57.3483   10.4550 H   0  0  0  0  0  0  0  0  0  0  0  0
  -20.8030   59.7399   10.6786 H   0  0  0  0  0  0  0  0  0  0  0  0
 30 31  1  0  0  0
 30 32  1  0  0  0
 30 33  2  0  0  0
 30 27  1  0  0  0
 27 28  1  0  0  0
 27 29  1  0  0  0
 27  2  1  0  0  0
  1  2  2  0  0  0
  1  9  1  0  0  0
  2  3  1  0  0  0
  3  4  2  0  0  0
  4 10  1  0  0  0
  5  6  2  0  0  0
  5 10  1  0  0  0
  6  7  1  0  0  0
  6 11  1  0  0  0
  7  8  2  0  0  0
  8  9  1  0  0  0
  9 10  2  0  0  0
 11 12  2  0  0  0
 11 13  1  0  0  0
 13 15  1  0  0  0
 15 16  1  0  0  0
 15 21  1  0  0  0
 16 17  1  0  0  0
 16 18  2  0  0  0
 21 22  1  0  0  0
 22 23  1  0  0  0
 23 24  2  0  0  0
 23 25  1  0  0  0
 31 34  1  0  0  0
 32 35  1  0  0  0
 13 14  1  0  0  0
 17 19  1  0  0  0
 17 20  1  0  0  0
 25 26  1  0  0  0
M  END
> <minimizedAffinity>
-8.26798

$$$$
1BZC_TPI_A_902


 35 36  0  0  0  0  0  0  0  0999 V2000
  -20.5722   55.9382   15.3381 C   0  0  0  0  0  0  0  0  0  0  0  0
  -20.6274   57.2281   14.7644 C   0  0  0  0  0  0  0  0  0  0  0  0
  -19.9443   58.2938   15.3780 C   0  0  0  0  0  0  0  0  0  0  0  0
  -19.2228   58.0964   16.5543 C   0  0  0  0  0  0  0  0  0  0  0  0
  -18.4778   56.6521   18.3412 C   0  0  0  0  0  0  0  0  0  0  0  0
  -18.4162   55.3969   18.9574 C   0  0  0  0  0  0  0  0  0  0  0  0
  -19.0612   54.2924   18.3524 C   0  0  0  0  0  0  0  0  0  0  0  0
  -19.7788   54.4607   17.1427 C   0  0  0  0  0  0  0  0  0  0  0  0
  -19.8430   55.7319   16.5337 C   0  0  0  0  0  0  0  0  0  0  0  0
  -19.1800   56.8253   17.1380 C   0  0  0  0  0  0  0  0  0  0  0  0
  -17.6531   55.2520   20.2651 C   0  0  0  0  0  0  0  0  0  0  0  0
  -17.8508   54.2453   20.9324 O   0  0  0  0  0  0  0  0  0  0  0  0
  -16.7181   56.2963   20.6916 N   0  0  0  0  0  0  0  0  0  0  0  0
  -16.5492   57.1071   20.1592 H   0  0  0  0  0  0  0  0  0  0  0  0
  -16.0515   56.0388   21.9775 C   0  0  0  0  0  0  0  0  0  0  0  0
  -16.5676   56.8016   23.1742 C   0  0  0  0  0  0  0  0  0  0  0  0
  -16.2671   58.2153   23.2612 N   0  0  0  0  0  0  0  0  0  0  0  0
  -17.2487   56.2622   24.0319 O   0  0  0  0  0  0  0  0  0  0  0  0
  -15.7174   58.6453   22.5669 H   0  0  0  0  0  0  0  0  0  0  0  0
  -16.6125   58.7465   24.0148 H   0  0  0  0  0  0  0  0  0  0  0  0
  -14.5318   56.2922   21.8672 C   0  0  0  0  0  0  0  0  0  0  0  0
  -14.1673   57.0141   20.5614 C   0  0  0  0  0  0  0  0  0  0  0  0
  -13.5120   58.3221   20.8903 C   0  0  0  0  0  0  0  0  0  0  0  0
  -12.9976   58.9723   19.8505 O   0  0  0  0  0  0  0  0  0  0  0  0
  -13.4421   58.7635   22.0367 O   0  0  0  0  0  0  0  0  0  0  0  0
  -13.8148   58.2809   22.7481 H   0  0  0  0  0  0  0  0  0  0  0  0
  -21.4672   57.5225   13.5190 C   0  0  0  0  0  0  0  0  0  0  0  0
  -22.4984   58.3165   13.8905 F   0  0  0  0  0  0  0  0  0  0  0  0
  -21.9464   56.3716   13.0433 F   0  0  0  0  0  0  0  0  0  0  0  0
  -20.5784   58.3095   12.1759 P   0  0  0  0  0  0  0  0  0  0  0  0
  -19.1853   58.8494   12.7139 O   0  0  0  0  0  0  0  0  0  0  0  0
  -20.3727   57.2984   11.1186 O   0  0  0  0  0  0  0  0  0  0  0  0
  -21.4437   59.5153   11.6147 O   0  0  0  0  0  0  0  0  0  0  0  0
  -18.7021   59.2759   11.9889 H   0  0  0  0  0  0  0  0  0  0  0  0
  -19.8923   57.6990   10.3772 H   0  0  0  0  0  0  0  0  0  0  0  0
 30 31  1  0  0  0
 30 32  1  0  0  0
 30 33  2  0  0  0
 30 27  1  0  0  0
 27 28  1  0  0  0
 27 29  1  0  0  0
 27  2  1  0  0  0
  1  2  2  0  0  0
  1  9  1  0  0  0
  2  3  1  0  0  0
  3  4  2  0  0  0
  4 10  1  0  0  0
  5  6  2  0  0  0
  5 10  1  0  0  0
  6  7  1  0  0  0
  6 11  1  0  0  0
  7  8  2  0  0  0
  8  9  1  0  0  0
  9 10  2  0  0  0
 11 12  2  0  0  0
 11 13  1  0  0  0
 13 15  1  0  0  0
 15 16  1  0  0  0
 15 21  1  0  0  0
 16 17  1  0  0  0
 16 18  2  0  0  0
 21 22  1  0  0  0
 22 23  1  0  0  0
 23 24  2  0  0  0
 23 25  1  0  0  0
 31 34  1  0  0  0
 32 35  1  0  0  0
 13 14  1  0  0  0
 17 19  1  0  0  0
 17 20  1  0  0  0
 25 26  1  0  0  0
M  END
> <minimizedAffinity>
-8.07610

$$$$
1BZC_TPI_A_902


 35 36  0  0  0  0  0  0  0  0999 V2000
  -20.2476   56.9982   15.4090 C   0  0  0  0  0  0  0  0  0  0  0  0
  -21.0575   56.4029   14.4161 C   0  0  0  0  0  0  0  0  0  0  0  0
  -21.4058   55.0442   14.5228 C   0  0  0  0  0  0  0  0  0  0  0  0
  -20.9507   54.2723   15.5907 C   0  0  0  0  0  0  0  0  0  0  0  0
  -19.6546   54.0506   17.6168 C   0  0  0  0  0  0  0  0  0  0  0  0
  -18.8304   54.5926   18.6098 C   0  0  0  0  0  0  0  0  0  0  0  0
  -18.4864   55.9640   18.5564 C   0  0  0  0  0  0  0  0  0  0  0  0
  -18.9577   56.7765   17.4960 C   0  0  0  0  0  0  0  0  0  0  0  0
  -19.7807   56.2191   16.4946 C   0  0  0  0  0  0  0  0  0  0  0  0
  -20.1325   54.8511   16.5673 C   0  0  0  0  0  0  0  0  0  0  0  0
  -18.3257   53.6903   19.7254 C   0  0  0  0  0  0  0  0  0  0  0  0
  -17.7666   54.2185   20.6773 O   0  0  0  0  0  0  0  0  0  0  0  0
  -18.5134   52.2397   19.6409 N   0  0  0  0  0  0  0  0  0  0  0  0
  -18.9659   51.8064   18.8815 H   0  0  0  0  0  0  0  0  0  0  0  0
  -17.9726   51.4811   20.7795 C   0  0  0  0  0  0  0  0  0  0  0  0
  -16.9668   50.4011   20.4592 C   0  0  0  0  0  0  0  0  0  0  0  0
  -15.6708   50.8059   19.9564 N   0  0  0  0  0  0  0  0  0  0  0  0
  -17.2140   49.2205   20.6470 O   0  0  0  0  0  0  0  0  0  0  0  0
  -15.4767   51.7594   19.8067 H   0  0  0  0  0  0  0  0  0  0  0  0
  -14.9836   50.1276   19.7643 H   0  0  0  0  0  0  0  0  0  0  0  0
  -19.1127   50.8442   21.6044 C   0  0  0  0  0  0  0  0  0  0  0  0
  -20.4234   50.7743   20.8069 C   0  0  0  0  0  0  0  0  0  0  0  0
  -20.9600   49.3754   20.8663 C   0  0  0  0  0  0  0  0  0  0  0  0
  -22.1686   49.2119   20.3361 O   0  0  0  0  0  0  0  0  0  0  0  0
  -20.3385   48.4436   21.3759 O   0  0  0  0  0  0  0  0  0  0  0  0
  -19.4884   48.5917   21.7411 H   0  0  0  0  0  0  0  0  0  0  0  0
  -21.5213   57.1784   13.1806 C   0  0  0  0  0  0  0  0  0  0  0  0
  -22.8668   57.3077   13.2513 F   0  0  0  0  0  0  0  0  0  0  0  0
  -21.2027   56.4780   12.0904 F   0  0  0  0  0  0  0  0  0  0  0  0
  -20.7878   58.8024   12.9872 P   0  0  0  0  0  0  0  0  0  0  0  0
  -20.9887   59.6318   14.3265 O   0  0  0  0  0  0  0  0  0  0  0  0
  -19.3506   58.6162   12.7000 O   0  0  0  0  0  0  0  0  0  0  0  0
  -21.4916   59.5514   11.7784 O   0  0  0  0  0  0  0  0  0  0  0  0
  -20.5926   60.5113   14.2246 H   0  0  0  0  0  0  0  0  0  0  0  0
  -18.9278   59.4823   12.5905 H   0  0  0  0  0  0  0  0  0  0  0  0
 30 31  1  0  0  0
 30 32  1  0  0  0
 30 33  2  0  0  0
 30 27  1  0  0  0
 27 28  1  0  0  0
 27 29  1  0  0  0
 27  2  1  0  0  0
  1  2  2  0  0  0
  1  9  1  0  0  0
  2  3  1  0  0  0
  3  4  2  0  0  0
  4 10  1  0  0  0
  5  6  2  0  0  0
  5 10  1  0  0  0
  6  7  1  0  0  0
  6 11  1  0  0  0
  7  8  2  0  0  0
  8  9  1  0  0  0
  9 10  2  0  0  0
 11 12  2  0  0  0
 11 13  1  0  0  0
 13 15  1  0  0  0
 15 16  1  0  0  0
 15 21  1  0  0  0
 16 17  1  0  0  0
 16 18  2  0  0  0
 21 22  1  0  0  0
 22 23  1  0  0  0
 23 24  2  0  0  0
 23 25  1  0  0  0
 31 34  1  0  0  0
 32 35  1  0  0  0
 13 14  1  0  0  0
 17 19  1  0  0  0
 17 20  1  0  0  0
 25 26  1  0  0  0
M  END
> <minimizedAffinity>
-7.98070

$$$$
1BZC_TPI_A_902


 35 36  0  0  0  0  0  0  0  0999 V2000
  -19.7512   57.1625   15.4422 C   0  0  0  0  0  0  0  0  0  0  0  0
  -20.6050   56.8597   14.3580 C   0  0  0  0  0  0  0  0  0  0  0  0
  -21.3502   55.6666   14.3696 C   0  0  0  0  0  0  0  0  0  0  0  0
  -21.2472   54.7709   15.4328 C   0  0  0  0  0  0  0  0  0  0  0  0
  -20.2711   54.1265   17.5460 C   0  0  0  0  0  0  0  0  0  0  0  0
  -19.4194   54.3741   18.6288 C   0  0  0  0  0  0  0  0  0  0  0  0
  -18.6796   55.5794   18.6706 C   0  0  0  0  0  0  0  0  0  0  0  0
  -18.7866   56.5186   17.6155 C   0  0  0  0  0  0  0  0  0  0  0  0
  -19.6409   56.2560   16.5236 C   0  0  0  0  0  0  0  0  0  0  0  0
  -20.3889   55.0559   16.5006 C   0  0  0  0  0  0  0  0  0  0  0  0
  -19.3126   53.3381   19.7373 C   0  0  0  0  0  0  0  0  0  0  0  0
  -18.9035   53.7108   20.8289 O   0  0  0  0  0  0  0  0  0  0  0  0
  -19.6919   51.9459   19.4830 N   0  0  0  0  0  0  0  0  0  0  0  0
  -20.0263   51.6380   18.6098 H   0  0  0  0  0  0  0  0  0  0  0  0
  -19.5338   51.0441   20.6346 C   0  0  0  0  0  0  0  0  0  0  0  0
  -18.4669   49.9812   20.5228 C   0  0  0  0  0  0  0  0  0  0  0  0
  -17.3123   50.2606   19.6952 N   0  0  0  0  0  0  0  0  0  0  0  0
  -18.5466   48.9277   21.1345 O   0  0  0  0  0  0  0  0  0  0  0  0
  -17.2531   51.1117   19.2040 H   0  0  0  0  0  0  0  0  0  0  0  0
  -16.5864   49.5994   19.6236 H   0  0  0  0  0  0  0  0  0  0  0  0
  -20.8704   50.3473   20.9723 C   0  0  0  0  0  0  0  0  0  0  0  0
  -22.0013   51.3618   21.1984 C   0  0  0  0  0  0  0  0  0  0  0  0
  -21.7658   52.0782   22.4944 C   0  0  0  0  0  0  0  0  0  0  0  0
  -21.9516   51.3431   23.5870 O   0  0  0  0  0  0  0  0  0  0  0  0
  -21.4350   53.2620   22.5517 O   0  0  0  0  0  0  0  0  0  0  0  0
  -21.3120   53.7528   21.7631 H   0  0  0  0  0  0  0  0  0  0  0  0
  -20.6996   57.7651   13.1274 C   0  0  0  0  0  0  0  0  0  0  0  0
  -20.8851   56.9761   12.0435 F   0  0  0  0  0  0  0  0  0  0  0  0
  -19.5508   58.4311   12.9961 F   0  0  0  0  0  0  0  0  0  0  0  0
  -22.0063   58.9906   13.1884 P   0  0  0  0  0  0  0  0  0  0  0  0
  -21.8737   59.8327   14.5282 O   0  0  0  0  0  0  0  0  0  0  0  0
  -21.8593   59.8648   12.0065 O   0  0  0  0  0  0  0  0  0  0  0  0
  -23.4120   58.2557   13.1503 O   0  0  0  0  0  0  0  0  0  0  0  0
  -22.5797   60.4969   14.5639 H   0  0  0  0  0  0  0  0  0  0  0  0
  -22.5563   60.5394   12.0146 H   0  0  0  0  0  0  0  0  0  0  0  0
 30 31  1  0  0  0
 30 32  1  0  0  0
 30 33  2  0  0  0
 30 27  1  0  0  0
 27 28  1  0  0  0
 27 29  1  0  0  0
 27  2  1  0  0  0
  1  2  2  0  0  0
  1  9  1  0  0  0
  2  3  1  0  0  0
  3  4  2  0  0  0
  4 10  1  0  0  0
  5  6  2  0  0  0
  5 10  1  0  0  0
  6  7  1  0  0  0
  6 11  1  0  0  0
  7  8  2  0  0  0
  8  9  1  0  0  0
  9 10  2  0  0  0
 11 12  2  0  0  0
 11 13  1  0  0  0
 13 15  1  0  0  0
 15 16  1  0  0  0
 15 21  1  0  0  0
 16 17  1  0  0  0
 16 18  2  0  0  0
 21 22  1  0  0  0
 22 23  1  0  0  0
 23 24  2  0  0  0
 23 25  1  0  0  0
 31 34  1  0  0  0
 32 35  1  0  0  0
 13 14  1  0  0  0
 17 19  1  0  0  0
 17 20  1  0  0  0
 25 26  1  0  0  0
M  END
> <minimizedAffinity>
-7.97319

$$$$
1BZC_TPI_A_902


 35 36  0  0  0  0  0  0  0  0999 V2000
  -20.7572   55.9046   14.4562 C   0  0  0  0  0  0  0  0  0  0  0  0
  -20.1902   57.1768   14.2190 C   0  0  0  0  0  0  0  0  0  0  0  0
  -19.2647   57.7093   15.1348 C   0  0  0  0  0  0  0  0  0  0  0  0
  -18.9087   57.0027   16.2825 C   0  0  0  0  0  0  0  0  0  0  0  0
  -19.1377   55.0684   17.7108 C   0  0  0  0  0  0  0  0  0  0  0  0
  -19.6928   53.8161   17.9982 C   0  0  0  0  0  0  0  0  0  0  0  0
  -20.6010   53.2314   17.0843 C   0  0  0  0  0  0  0  0  0  0  0  0
  -20.9591   53.9170   15.8975 C   0  0  0  0  0  0  0  0  0  0  0  0
  -20.4011   55.1832   15.6208 C   0  0  0  0  0  0  0  0  0  0  0  0
  -19.4810   55.7505   16.5329 C   0  0  0  0  0  0  0  0  0  0  0  0
  -19.3024   53.1130   19.2891 C   0  0  0  0  0  0  0  0  0  0  0  0
  -19.7434   53.5617   20.3389 O   0  0  0  0  0  0  0  0  0  0  0  0
  -18.4256   51.9398   19.2525 N   0  0  0  0  0  0  0  0  0  0  0  0
  -18.0699   51.5690   18.4126 H   0  0  0  0  0  0  0  0  0  0  0  0
  -18.1181   51.3590   20.5687 C   0  0  0  0  0  0  0  0  0  0  0  0
  -16.6922   50.9187   20.7999 C   0  0  0  0  0  0  0  0  0  0  0  0
  -15.8859   51.6834   21.7279 N   0  0  0  0  0  0  0  0  0  0  0  0
  -16.2316   49.9288   20.2537 O   0  0  0  0  0  0  0  0  0  0  0  0
  -16.2622   52.4809   22.1656 H   0  0  0  0  0  0  0  0  0  0  0  0
  -14.9613   51.4059   21.9212 H   0  0  0  0  0  0  0  0  0  0  0  0
  -19.0442   50.1595   20.8681 C   0  0  0  0  0  0  0  0  0  0  0  0
  -19.8973   50.3968   22.1230 C   0  0  0  0  0  0  0  0  0  0  0  0
  -19.0214   50.9260   23.2190 C   0  0  0  0  0  0  0  0  0  0  0  0
  -19.1797   52.2175   23.4935 O   0  0  0  0  0  0  0  0  0  0  0  0
  -18.2061   50.2257   23.8181 O   0  0  0  0  0  0  0  0  0  0  0  0
  -18.1187   49.3184   23.6009 H   0  0  0  0  0  0  0  0  0  0  0  0
  -20.6016   58.0330   13.0187 C   0  0  0  0  0  0  0  0  0  0  0  0
  -20.7760   57.2084   11.9596 F   0  0  0  0  0  0  0  0  0  0  0  0
  -19.6184   58.8940   12.7494 F   0  0  0  0  0  0  0  0  0  0  0  0
  -22.0905   59.0025   13.2556 P   0  0  0  0  0  0  0  0  0  0  0  0
  -23.3452   58.0310   13.3161 O   0  0  0  0  0  0  0  0  0  0  0  0
  -21.9461   59.7472   14.5234 O   0  0  0  0  0  0  0  0  0  0  0  0
  -22.2507   60.0154   12.0448 O   0  0  0  0  0  0  0  0  0  0  0  0
  -24.1525   58.5531   13.4443 H   0  0  0  0  0  0  0  0  0  0  0  0
  -22.7407   60.2820   14.6766 H   0  0  0  0  0  0  0  0  0  0  0  0
 30 31  1  0  0  0
 30 32  1  0  0  0
 30 33  2  0  0  0
 30 27  1  0  0  0
 27 28  1  0  0  0
 27 29  1  0  0  0
 27  2  1  0  0  0
  1  2  2  0  0  0
  1  9  1  0  0  0
  2  3  1  0  0  0
  3  4  2  0  0  0
  4 10  1  0  0  0
  5  6  2  0  0  0
  5 10  1  0  0  0
  6  7  1  0  0  0
  6 11  1  0  0  0
  7  8  2  0  0  0
  8  9  1  0  0  0
  9 10  2  0  0  0
 11 12  2  0  0  0
 11 13  1  0  0  0
 13 15  1  0  0  0
 15 16  1  0  0  0
 15 21  1  0  0  0
 16 17  1  0  0  0
 16 18  2  0  0  0
 21 22  1  0  0  0
 22 23  1  0  0  0
 23 24  2  0  0  0
 23 25  1  0  0  0
 31 34  1  0  0  0
 32 35  1  0  0  0
 13 14  1  0  0  0
 17 19  1  0  0  0
 17 20  1  0  0  0
 25 26  1  0  0  0
M  END
> <minimizedAffinity>
-7.63429

$$$$
